@<TRIPOS>MOLECULE
*****
 20 66 0 0 0
SMALL
GASTEIGER

@<TRIPOS>ATOM
   1 C   2.9670   2.9670   2.9670   C
   2 C   3.3276   1.9184   -1.6868   C
   3 C   3.2772   -1.3897   1.9713   C
   4 C   2.7968   -2.3326   -1.8271   C
   5 C   -1.6868   3.3276   1.9184   C
   6 C   1.9713   3.2772   -1.3897   C
   7 C   1.9184   -1.6868   3.3276   C
   8 C   -1.3897   1.9713   3.2772   C
   9 C   1.8271   -2.7968   2.3326   C
  10 C   2.3326   1.8271   -2.7968   C
  11 C   -1.8271   2.7968   -2.3326   C
  12 C   -2.3326   -1.8271   2.7968   C
  13 C   1.6868   -3.3276   -1.9184   C
  14 C   -1.9713   -3.2772   1.3897   C
  15 C   -1.9184   1.6868   -3.3276   C
  16 C   1.3897   -1.9713   -3.2772   C
  17 C   -2.7968   2.3326   1.8271   C
  18 C   -2.9670   -2.9670   -2.9670   C
  19 C   -3.3276   -1.9184   1.6868   C
  20 C   -3.2772   1.3897   -1.9713   C

@<TRIPOS>BOND
   1   1   2   1
   2   1   3   1
   3   1   5   1
   4   1   6   1
   5   1   7   1
   6   1   8   1
   7   2   3   1
   8   2   4   1
   9   2   6   1
  10   2  10   1
  11   3   4   1
  12   3   6   1
  13   3   7   1
  14   3   8   1
  15   3   9   1
  16   3  10   1
  17   4   9   1
  18   4  10   1
  19   4  13   1
  20   4  14   1
  21   4  16   1
  22   5   6   1
  23   5   8   1
  24   5  11   1
  25   5  17   1
  26   6   8   1
  27   6  10   1
  28   6  11   1
  29   6  17   1
  30   7   8   1
  31   7   9   1
  32   7  12   1
  33   8   9   1
  34   8  12   1
  35   8  17   1
  36   9  12   1
  37   9  13   1
  38   9  14   1
  39  10  11   1
  40  10  15   1
  41  10  16   1
  42  11  15   1
  43  11  16   1
  44  11  17   1
  45  11  20   1
  46  12  14   1
  47  12  17   1
  48  12  19   1
  49  12  20   1
  50  13  14   1
  51  13  16   1
  52  13  18   1
  53  14  16   1
  54  14  18   1
  55  14  19   1
  56  14  20   1
  57  15  16   1
  58  15  18   1
  59  15  20   1
  60  16  18   1
  61  16  20   1
  62  17  19   1
  63  17  20   1
  64  18  19   1
  65  18  20   1
  66  19  20   1
