@<TRIPOS>MOLECULE
*****
 34 38 0 0 0
SMALL
GASTEIGER

@<TRIPOS>ATOM
   1 C    1.3475    1.3475    1.3475 C
   2 C    2.2169    0.4610    0.4387 C
   3 C    1.3263   -0.4256   -0.4428 C
   4 H    1.9278    1.9278    1.9278 H
   5 H    2.6152    0.9836   -0.3235 H
   6 H    2.5505   -0.1213    0.9209 H
   7 H    1.8439   -1.0968   -0.9300 H
   8 C    0.4387    2.2169    0.4610 C
   9 C    0.4610    0.4387    2.2169 C
  10 C    0.4428   -1.3263    0.4256 C
  11 C    0.4256    0.4428   -1.3263 C
  12 C   -0.4428    1.3263   -0.4256 C
  13 H   -0.3235    2.6152    0.9836 H
  14 H    0.9209    2.5505   -0.1213 H
  15 C   -0.4256   -0.4428    1.3263 C
  16 H    0.9836   -0.3235    2.6152 H
  17 H   -0.1213    0.9209    2.5505 H
  18 C   -0.4387   -2.2169   -0.4610 C
  19 H    0.9300   -1.8439    1.0968 H
  20 C   -0.4610   -0.4387   -2.2169 C
  21 H    1.0968    0.9300   -1.8439 H
  22 C   -1.3263    0.4256    0.4428 C
  23 H   -0.9300    1.8439   -1.0968 H
  24 H   -1.0968   -0.9300    1.8439 H
  25 C   -1.3475   -1.3475   -1.3475 C
  26 H    0.3235   -2.6152   -0.9836 H
  27 H   -0.9209   -2.5505    0.1213 H
  28 H   -0.9836    0.3235   -2.6152 H
  29 H    0.1213   -0.9209   -2.5505 H
  30 C   -2.2169   -0.4610   -0.4387 C
  31 H   -1.8439    1.0968    0.9300 H
  32 H   -1.9278   -1.9278   -1.9278 H
  33 H   -2.6152   -0.9836    0.3235 H
  34 H   -2.5505    0.1213   -0.9209 H
@<TRIPOS>BOND
   1   1   2   1
   1   1   4   1
   1   1   8   1
   1   1   9   1
   1   2   3   1
   1   2   5   1
   1   2   6   1
   1   3   7   1
   1   3  10   1
   1   3  11   1
   1   8  12   1
   1   8  13   1
   1   8  14   1
   1   9  15   1
   1   9  16   1
   1   9  17   1
   1  10  15   1
   1  10  18   1
   1  10  19   1
   1  11  12   1
   1  11  20   1
   1  11  21   1
   1  12  22   1
   1  12  23   1
   1  15  22   1
   1  15  24   1
   1  18  25   1
   1  18  26   1
   1  18  27   1
   1  20  25   1
   1  20  28   1
   1  20  29   1
   1  22  30   1
   1  22  31   1
   1  25  30   1
   1  25  32   1
   1  30  33   1
   1  30  34   1
