@<TRIPOS>MOLECULE
*****
 85 244 0 0 0
SMALL
GASTEIGER

@<TRIPOS>ATOM
   1 O   2.1988   -6.9269   13.6798   O
   2 C   0.1474   -5.9857   13.1407   C
   3 O   0.9877   -7.1241   16.4963   O
   4 S   0.9196   -6.5036   14.0598   S
   5 C   1.6969   -3.3218   16.1167   C
   6 S   0.3475   -6.5766   15.3781   S
   7 C   3.8337   -4.8078   11.6222   C
   8 C   -2.5084   -2.4199   10.8932   C
   9 C   -1.2667   -4.1523   17.1447   C
  10 C   -0.9062   -6.0667   15.5060   C
  11 C   0.4953   -2.7775   15.9261   C
  12 C   3.1787   -6.0369   16.8033   C
  13 C   0.5399   -5.3384   18.3095   C
  14 C   2.1502   -3.7360   17.1609   C
  15 C   5.0738   1.2833   2.2369   C
  16 C   3.0873   2.3340   0.4306   C
  17 C   6.4226   3.1567   1.4406   C
  18 C   6.2463   4.3017   -0.1854   C
  19 C   5.5891   8.0429   2.4885   C
  20 C   8.4118   8.6631   2.9090   C
  21 C   4.6216   8.9811   -0.7137   C
  22 C   6.1162   7.3314   -5.8078   C
  23 C   6.1975   9.7209   -6.6815   C
  24 C   9.0831   10.1994   -6.8796   C
  25 C   9.2110   7.4393   -6.5604   C
  26 C   5.5749   0.1667   9.6812   C
  27 C   5.8809   0.0987   5.3187   C
  28 C   3.1355   -2.8813   7.2865   C
  29 C   2.7166   -1.6102   3.5685   C
  30 C   -1.2795   0.8015   4.8893   C
  31 C   0.6159   -2.5873   7.0976   C
  32 C   1.5491   3.4427   6.7428   C
  33 C   -0.9492   2.9367   10.1099   C
  34 C   -2.4277   1.3273   6.4589   C
  35 C   -3.1072   -0.6936   10.3827   C
  36 C   -0.8425   -2.4833   7.3217   C
  37 C   0.6167   1.4053   11.8415   C
  38 C   1.5923   -2.6894   7.4666   C
  39 C   5.3693   -1.5106   8.9886   C
  40 C   3.2297   0.6619   12.3696   C
  41 C   2.2248   -4.3204   8.8422   C
  42 C   -2.7745   -2.7118   9.1185   C
  43 C   -2.6396   -4.4512   12.6784   C
  44 C   -0.0392   -6.9901   10.1777   C
  45 C   3.3026   -5.3578   11.3399   C
  46 C   -0.7600   -1.9130   14.6903   C
  47 C   2.3262   0.9334   12.5185   C
  48 C   3.7124   -2.4770   14.4685   C
  49 C   -0.0773   1.8363   11.3285   C
  50 C   2.5634   4.1039   8.2713   C
  51 C   4.4485   1.2204   11.1633   C
  52 C   -1.5491   -1.4317   13.8814   C
  53 C   -2.6452   -5.8524   13.7127   C
  54 C   4.1469   -5.8926   13.8941   C
  55 C   5.9562   -1.8788   11.1145   C
  56 C   -1.2740   0.8397   12.1682   C
  57 C   4.4959   -0.3058   3.0799   C
  58 C   1.0769   1.9005   1.6932   C
  59 C   1.7413   4.9509   5.3446   C
  60 C   2.6848   5.9413   1.5253   C
  61 C   4.4475   6.2051   5.1742   C
  62 C   6.3658   0.8565   2.7718   C
  63 C   7.4297   0.9379   6.3883   C
  64 C   8.9808   4.0750   3.9590   C
  65 C   5.2142   5.4416   6.6370   C
  66 C   4.8282   7.4035   3.8359   C
  67 C   9.0314   6.8065   3.8691   C
  68 C   8.8710   4.1128   0.2676   C
  69 C   9.9897   7.7814   -0.3829   C
  70 C   4.1764   8.5448   2.0266   C
  71 C   5.3626   4.3891   -2.7039   C
  72 C   3.6069   8.8759   -2.2876   C
  73 C   1.5832   5.3675   0.1467   C
  74 C   4.7248   6.5070   -3.5945   C
  75 C   3.4837   10.1481   -2.3988   C
  76 C   8.1998   11.3592   -1.5991   C
  77 C   6.7558   12.4960   -5.3648   C
  78 C   10.0066   10.9378   -3.5697   C
  79 C   6.3514   5.9133   -5.1160   C
  80 C   9.9558   7.4129   -6.7664   C
  81 C   9.2913   4.8707   -2.2653   C
  82 C   11.5683   9.2146   -2.9555   C
  83 C   6.8504   10.7631   0.0457   C
  84 C   3.0609   9.9381   -5.5411   C
  85 C   5.3842   8.7889   -6.7105   C

@<TRIPOS>BOND
   1   1   4   1
   2   1  45   1
   3   1  54   1
   4   2   4   1
   5   2  44   1
   6   2  53   1
   7   3  10   1
   8   3  12   1
   9   3  13   1
  10   3  54   1
  11   3   6   1
  12   4   6   1
  13   5  11   1
  14   5  14   1
  15   5  48   1
  16   6  10   1
  17   7  28   1
  18   7  39   1
  19   7  41   1
  20   7  45   1
  21   7  54   1
  22   7  55   1
  23   8  35   1
  24   8  42   1
  25   8  43   1
  26   8  52   1
  27   9  10   1
  28   9  11   1
  29   9  13   1
  30   9  14   1
  31   9  43   1
  32   9  46   1
  33   9  52   1
  34   9  53   1
  35  10  13   1
  36  10  53   1
  37  11  14   1
  38  11  46   1
  39  11  47   1
  40  11  48   1
  41  12  13   1
  42  12  14   1
  43  12  48   1
  44  12  54   1
  45  13  14   1
  46  14  48   1
  47  15  16   1
  48  15  17   1
  49  15  57   1
  50  15  62   1
  51  16  17   1
  52  16  18   1
  53  16  29   1
  54  16  57   1
  55  16  58   1
  56  16  71   1
  57  16  73   1
  58  17  18   1
  59  17  62   1
  60  17  68   1
  61  18  68   1
  62  18  71   1
  63  18  81   1
  64  19  20   1
  65  19  66   1
  66  19  70   1
  67  19  83   1
  68  20  65   1
  69  20  66   1
  70  20  67   1
  71  20  69   1
  72  20  76   1
  73  20  83   1
  74  21  70   1
  75  21  75   1
  76  21  83   1
  77  22  25   1
  78  22  74   1
  79  22  79   1
  80  22  85   1
  81  23  24   1
  82  23  25   1
  83  23  77   1
  84  23  84   1
  85  23  85   1
  86  24  25   1
  87  24  77   1
  88  24  78   1
  89  24  80   1
  90  24  82   1
  91  25  79   1
  92  25  80   1
  93  25  81   1
  94  25  85   1
  95  26  51   1
  96  26  55   1
  97  26  63   1
  98  26  65   1
  99  27  28   1
 100  27  29   1
 101  27  39   1
 102  27  57   1
 103  27  62   1
 104  27  63   1
 105  28  29   1
 106  28  31   1
 107  28  38   1
 108  28  39   1
 109  28  41   1
 110  29  30   1
 111  29  31   1
 112  29  36   1
 113  29  57   1
 114  29  58   1
 115  30  34   1
 116  30  36   1
 117  30  58   1
 118  30  59   1
 119  31  36   1
 120  31  38   1
 121  31  41   1
 122  31  44   1
 123  32  33   1
 124  32  34   1
 125  32  50   1
 126  32  59   1
 127  33  34   1
 128  33  35   1
 129  33  49   1
 130  33  50   1
 131  33  56   1
 132  33  59   1
 133  34  35   1
 134  34  36   1
 135  34  42   1
 136  34  59   1
 137  35  42   1
 138  35  52   1
 139  35  56   1
 140  36  42   1
 141  36  44   1
 142  37  46   1
 143  37  47   1
 144  37  49   1
 145  37  50   1
 146  37  56   1
 147  38  41   1
 148  39  55   1
 149  39  63   1
 150  40  47   1
 151  40  48   1
 152  40  51   1
 153  40  55   1
 154  41  44   1
 155  41  45   1
 156  42  43   1
 157  42  44   1
 158  43  44   1
 159  43  52   1
 160  43  53   1
 161  44  45   1
 162  44  53   1
 163  45  54   1
 164  46  47   1
 165  46  52   1
 166  46  56   1
 167  47  48   1
 168  47  50   1
 169  47  51   1
 170  48  54   1
 171  48  55   1
 172  49  50   1
 173  49  56   1
 174  50  51   1
 175  50  59   1
 176  50  61   1
 177  50  65   1
 178  51  55   1
 179  51  65   1
 180  52  56   1
 181  54  55   1
 182  55  63   1
 183  57  62   1
 184  58  59   1
 185  58  73   1
 186  59  60   1
 187  59  61   1
 188  59  66   1
 189  59  70   1
 190  59  73   1
 191  60  70   1
 192  60  73   1
 193  61  65   1
 194  61  66   1
 195  62  63   1
 196  62  64   1
 197  62  68   1
 198  63  64   1
 199  63  65   1
 200  64  65   1
 201  64  67   1
 202  64  68   1
 203  65  66   1
 204  65  67   1
 205  66  70   1
 206  67  68   1
 207  67  69   1
 208  68  69   1
 209  68  81   1
 210  69  76   1
 211  69  81   1
 212  69  82   1
 213  70  72   1
 214  70  73   1
 215  70  75   1
 216  70  83   1
 217  71  73   1
 218  71  74   1
 219  71  79   1
 220  71  81   1
 221  72  73   1
 222  72  74   1
 223  72  75   1
 224  72  84   1
 225  73  74   1
 226  74  79   1
 227  74  84   1
 228  74  85   1
 229  75  76   1
 230  75  77   1
 231  75  83   1
 232  75  84   1
 233  76  77   1
 234  76  78   1
 235  76  82   1
 236  76  83   1
 237  77  78   1
 238  77  84   1
 239  78  82   1
 240  79  81   1
 241  80  81   1
 242  80  82   1
 243  81  82   1
 244  84  85   1
