@<TRIPOS>MOLECULE
*****
 119 126 0 0 0
SMALL
GASTEIGER

@<TRIPOS>ATOM
   1 C    3.4234    0.6389    7.9127 C
   2 C    3.4699   -0.2013    6.6435 C
   3 C    2.3081    0.1612    5.7130 C
   4 C    1.0035    0.0540    6.4595 C
   5 C    0.9513    0.9310    7.7092 C
   6 C   -0.4124    0.8815    8.4093 C
   7 C   -0.6544   -0.4579    9.1007 C
   8 C    0.4547   -0.7812    10.0961 C
   9 C    1.8284   -0.7797    9.3874 C
  10 C    2.0991    0.6001    8.6982 C
  11 C    2.9388   -1.2150    10.3526 C
  12 C    2.6030   -2.5524    10.9909 C
  13 C    1.3033   -2.5237    11.8208 C
  14 C    0.1318   -2.0481    10.9076 C
  15 C   -0.2360   -3.3013    10.1253 C
  16 C   -0.2251   -4.3972    11.1976 C
  17 C    0.9474   -4.0321    12.1368 C
  18 C    1.4777   -1.6342    13.0489 C
  19 C    2.2107    1.7147    9.7521 C
  20 C    0.7253   -4.3397    13.5845 C
  21 C   -0.5433   -4.1021    14.3376 C
  22 C    1.6063   -4.8798    14.4230 C
  23 C    1.0222   -4.9492    15.7474 C
  24 O    2.3743    1.5163    5.2315 O
  25 O    3.6792   -3.0256    11.8219 O
  26 O   -1.0385   -1.8114    11.7354 O
  27 O   -0.2054   -4.4221    15.7160 O
  28 O    1.5049   -5.3750    16.7905 O
  29 C    3.3902    1.8769    4.3670 C
  30 C    2.8505    2.9841    3.4732 C
  31 C    3.9192    3.6717    2.6325 C
  32 C    5.1180    4.0447    3.5068 C
  33 C    5.5677    2.8830    4.4005 C
  34 C    6.6098    3.3408    5.3948 C
  35 C    6.1824    5.6374    2.0807 C
  36 C    7.5708    6.0755    1.6684 C
  37 C    7.4995    7.3342    0.7985 C
  38 C    6.4778    7.1536   -0.3159 C
  39 C    5.1352    6.6665    0.2121 C
  40 C    4.1203    6.3542   -0.8710 C
  41 C    6.5559    8.3663   -2.3479 C
  42 C    6.3178    9.7377   -2.9420 C
  43 C    6.6331    9.7007   -4.4319 C
  44 C    8.0081    9.0744   -4.6688 C
  45 C    8.2090    7.7689   -3.9039 C
  46 C    9.6414    7.2830   -3.9515 C
  47 O    4.4628    2.3958    5.1644 O
  48 O    4.4002    2.8115    1.5656 O
  49 O    6.2730    4.4016    2.7320 O
  50 O    5.3864    5.4360    0.9165 O
  51 O    7.1426    8.4119    1.6576 O
  52 O    6.3122    8.4201   -0.9727 O
  53 O    7.9165    8.0033   -2.5232 O
  54 O    5.6691    8.9445   -5.1460 O
  55 O    8.2077    8.8510   -6.0700 O
  56 H    4.2039    0.4676    8.5543 H
  57 H    3.5540    1.5116    7.6963 H
  58 H    4.3127   -0.0964    6.1804 H
  59 H    3.3523   -1.1437    6.8696 H
  60 H    2.4550   -0.4760    4.9415 H
  61 H    0.1524    0.3327    5.8742 H
  62 H    0.8701   -0.8552    6.6792 H
  63 H    1.1588    1.8027    7.3738 H
  64 H   -0.5941    1.5771    8.9849 H
  65 H   -1.1503    1.0447    7.6952 H
  66 H   -1.5177   -0.5408    9.5519 H
  67 H   -0.7172   -1.1342    8.5067 H
  68 H    0.5126    0.0009    10.7204 H
  69 H    1.7486   -1.4251    8.7382 H
  70 H    3.8084   -1.3208    9.8646 H
  71 H    3.0407   -0.5576    11.0591 H
  72 H    2.4672   -3.1871    10.2195 H
  73 H   -1.1390   -3.0916    9.7672 H
  74 H    0.4506   -3.3360    9.5021 H
  75 H   -1.1055   -4.4169    11.7375 H
  76 H   -0.1590   -5.3187    10.8351 H
  77 H    1.7980   -4.5109    11.8490 H
  78 H    0.6841   -1.7331    13.6310 H
  79 H    1.7720   -0.7437    12.8650 H
  80 H    2.2646   -1.9310    13.5488 H
  81 H    1.4036    1.7576    10.3082 H
  82 H    2.3393    2.5858    9.2121 H
  83 H    2.9519    1.5510    10.2195 H
  84 H   -0.9226   -3.0951    14.1655 H
  85 H   -1.2968   -4.7295    14.1136 H
  86 H    2.5053   -5.2382    14.2359 H
  87 H    4.4071   -2.6590    11.5958 H
  88 H   -1.1168   -0.9300    11.8793 H
  89 H    3.7760    1.1154    3.9179 H
  90 H    2.2436    2.6133    2.8640 H
  91 H    2.4221    3.7438    4.1960 H
  92 H    3.4753    4.4879    2.2343 H
  93 H    4.8769    4.8213    4.1062 H
  94 H    5.8376    2.1977    3.8498 H
  95 H    6.8884    2.5243    5.7324 H
  96 H    7.4924    3.6141    4.8603 H
  97 H    6.1077    4.0965    5.8417 H
  98 H    5.6882    6.2819    2.7212 H
  99 H    8.0721    6.3264    2.4237 H
 100 H    8.0167    5.4024    1.1880 H
 101 H    8.3844    7.4931    0.3787 H
 102 H    6.7958    6.5091   -0.9013 H
 103 H    4.7968    7.3295    0.8526 H
 104 H    4.6073    5.5839   -1.5895 H
 105 H    3.9215    7.3307   -1.4196 H
 106 H    3.1546    5.9786   -0.4836 H
 107 H    5.8645    7.6643   -2.8186 H
 108 H    5.2339    9.8947   -2.7342 H
 109 H    7.0002    10.3256   -2.4550 H
 110 H    6.6809    10.7900   -4.7954 H
 111 H    8.7852    9.7990   -4.2414 H
 112 H    7.5076    7.0682   -4.3615 H
 113 H    9.7562    7.3304   -4.9794 H
 114 H    9.5040    6.3357   -3.2893 H
 115 H    10.3741    8.0175   -3.5728 H
 116 H    5.0984    3.3312    1.1253 H
 117 H    7.0339    9.2862    1.0582 H
 118 H    4.7263    9.3036   -5.2888 H
 119 H    7.1392    8.8275   -6.3124 H
@<TRIPOS>BOND
   1   1   2   1
   1   1  10   1
   1   1  56   1
   1   1  57   1
   1   2   3   1
   1   2  58   1
   1   2  59   1
   1   3   4   1
   1   3  24   1
   1   3  60   1
   1   4   5   1
   1   4  61   1
   1   4  62   1
   1   5   6   1
   1   5  10   1
   1   5  63   1
   1   6   7   1
   1   6  64   1
   1   6  65   1
   1   7   8   1
   1   7  66   1
   1   7  67   1
   1   8   9   1
   1   8  14   1
   1   8  68   1
   1   9  10   1
   1   9  11   1
   1   9  69   1
   1  10  19   1
   1  11  12   1
   1  11  70   1
   1  11  71   1
   1  12  13   1
   1  12  25   1
   1  12  72   1
   1  13  14   1
   1  13  17   1
   1  13  18   1
   1  14  15   1
   1  14  26   1
   1  15  16   1
   1  15  73   1
   1  15  74   1
   1  16  17   1
   1  16  75   1
   1  16  76   1
   1  17  20   1
   1  17  77   1
   1  18  78   1
   1  18  79   1
   1  18  80   1
   1  19  81   1
   1  19  82   1
   1  19  83   1
   1  20  21   1
   1  20  22   1
   1  21  27   1
   1  21  84   1
   1  21  85   1
   1  22  23   1
   1  22  86   1
   1  23  27   1
   1  23  28   1
   1  24  29   1
   1  25  87   1
   1  26  88   1
   1  29  30   1
   1  29  47   1
   1  29  89   1
   1  30  31   1
   1  30  90   1
   1  30  91   1
   1  31  32   1
   1  31  48   1
   1  31  92   1
   1  32  33   1
   1  32  49   1
   1  32  93   1
   1  33  34   1
   1  33  47   1
   1  33  94   1
   1  34  95   1
   1  34  96   1
   1  34  97   1
   1  35  36   1
   1  35  49   1
   1  35  50   1
   1  35  98   1
   1  36  37   1
   1  36  99   1
   1  36 100   1
   1  37  38   1
   1  37  51   1
   1  37 101   1
   1  38  39   1
   1  38  52   1
   1  38 102   1
   1  39  40   1
   1  39  50   1
   1  39 103   1
   1  40 104   1
   1  40 105   1
   1  40 106   1
   1  41  42   1
   1  41  52   1
   1  41  53   1
   1  41 107   1
   1  42  43   1
   1  42 108   1
   1  42 109   1
   1  43  44   1
   1  43  54   1
   1  43 110   1
   1  44  45   1
   1  44  55   1
   1  44 111   1
   1  45  46   1
   1  45  53   1
   1  45 112   1
   1  46 113   1
   1  46 114   1
   1  46 115   1
   1  48 116   1
   1  51 117   1
   1  54 118   1
   1  55 119   1
