@<TRIPOS>MOLECULE
*****
 123 281 0 0 0
SMALL
GASTEIGER

@<TRIPOS>ATOM
   1 O   2.1988   -6.9269   13.6798   O
   2 C   0.1474   -5.9857   13.1407   C
   3 O   0.9877   -7.1241   16.4963   O
   4 S   0.9196   -6.5036   14.0598   S
   5 C   1.6969   -3.3218   16.1167   C
   6 S   0.3475   -6.5766   15.3781   S
   7 N   3.9303   -5.9217   11.4974   N
   8 O   3.3824   -6.6988   10.3373   O
   9 O   5.4038   -6.2021   11.5101   O
  10 O   3.0346   -6.4024   12.6004   O
  11 N   3.8337   -4.8078   11.6222   N
  12 N   -2.5084   -2.4199   10.8932   N
  13 N   -3.4271   -2.8003   10.3669   N
  14 N   -1.2667   -4.1523   17.1447   N
  15 C   -0.9062   -6.0667   15.5060   C
  16 C   0.4953   -2.7775   15.9261   C
  17 N   3.1787   -6.0369   16.8033   N
  18 C   0.5399   -5.3384   18.3095   C
  19 O   -3.4914   -3.0695   8.8927   O
  20 C   2.1502   -3.7360   17.1609   C
  21 O   -3.7721   -4.0985   11.0345   O
  22 O   -4.3387   -1.6149   10.4841   O
  23 N   5.0738   1.2833   2.2369   N
  24 C   3.0873   2.3340   0.4306   C
  25 N   -1.9300   -3.9837   18.0375   N
  26 N   6.4226   3.1567   1.4406   N
  27 N   6.2463   4.3017   -0.1854   N
  28 O   -1.4528   -4.3621   19.4084   O
  29 N   5.5891   8.0429   2.4885   N
  30 C   8.4118   8.6631   2.9090   C
  31 N   4.6216   8.9811   -0.7137   N
  32 O   -3.2915   -3.3806   17.8572   O
  33 N   4.2249   -6.4506   16.8112   N
  34 O   4.7901   -7.0328   18.0729   O
  35 N   6.1162   7.3314   -5.8078   N
  36 O   5.0121   -6.5204   15.5363   O
  37 C   6.1975   9.7209   -6.6815   C
  38 N   9.0831   10.1994   -6.8796   N
  39 C   9.2110   7.4393   -6.5604   C
  40 C   5.5749   0.1667   9.6812   C
  41 N   5.4949   0.3281   2.6565   N
  42 C   5.8809   0.0987   5.3187   C
  43 C   3.1355   -2.8813   7.2865   C
  44 C   2.7166   -1.6102   3.5685   C
  45 C   -1.2795   0.8015   4.8893   C
  46 C   0.6159   -2.5873   7.0976   C
  47 C   1.5491   3.4427   6.7428   C
  48 C   -0.9492   2.9367   10.1099   C
  49 C   -2.4277   1.3273   6.4589   C
  50 C   -3.1072   -0.6936   10.3827   C
  51 C   -0.8425   -2.4833   7.3217   C
  52 C   0.6167   1.4053   11.8415   C
  53 C   1.5923   -2.6894   7.4666   C
  54 C   5.3693   -1.5106   8.9886   C
  55 C   3.2297   0.6619   12.3696   C
  56 C   2.2248   -4.3204   8.8422   C
  57 C   -2.7745   -2.7118   9.1185   C
  58 O   5.8796   0.1481   4.0951   O
  59 C   -2.6396   -4.4512   12.6784   C
  60 C   -0.0392   -6.9901   10.1777   C
  61 C   3.3026   -5.3578   11.3399   C
  62 C   -0.7600   -1.9130   14.6903   C
  63 C   2.3262   0.9334   12.5185   C
  64 C   3.7124   -2.4770   14.4685   C
  65 C   -0.0773   1.8363   11.3285   C
  66 C   2.5634   4.1039   8.2713   C
  67 C   4.4485   1.2204   11.1633   C
  68 C   -1.5491   -1.4317   13.8814   C
  69 C   -2.6452   -5.8524   13.7127   C
  70 C   4.1469   -5.8926   13.8941   C
  71 C   5.9562   -1.8788   11.1145   C
  72 C   -1.2740   0.8397   12.1682   C
  73 C   4.4959   -0.3058   3.0799   C
  74 C   1.0769   1.9005   1.6932   C
  75 C   1.7413   4.9509   5.3446   C
  76 C   2.6848   5.9413   1.5253   C
  77 C   4.4475   6.2051   5.1742   C
  78 C   6.3658   0.8565   2.7718   C
  79 C   7.4297   0.9379   6.3883   C
  80 C   8.9808   4.0750   3.9590   C
  81 C   5.2142   5.4416   6.6370   C
  82 O   4.9075   7.4128   4.1221   O
  83 C   9.0314   6.8065   3.8691   C
  84 C   8.8710   4.1128   0.2676   C
  85 C   9.9897   7.7814   -0.3829   C
  86 O   4.4695   -0.7294   2.3727   O
  87 C   4.1764   8.5448   2.0266   C
  88 C   5.3626   4.3891   -2.7039   C
  89 C   3.6069   8.8759   -2.2876   C
  90 C   1.5832   5.3675   0.1467   C
  91 C   4.7248   6.5070   -3.5945   C
  92 O   3.3299   9.9391   -2.1717   O
  93 C   8.1998   11.3592   -1.5991   C
  94 C   6.7558   12.4960   -5.3648   C
  95 C   10.0066   10.9378   -3.5697   C
  96 C   6.3514   5.9133   -5.1160   C
  97 C   9.9558   7.4129   -6.7664   C
  98 C   9.2913   4.8707   -2.2653   C
  99 C   11.5683   9.2146   -2.9555   C
 100 O   6.8385   0.2877   1.9909   O
 101 C   6.8504   10.7631   0.0457   C
 102 C   3.0609   9.9381   -5.5411   C
 103 C   5.3842   8.7889   -6.7105   C
 104 N   6.5161   2.3787   0.6334   N
 105 O   5.4728   1.4596   0.0705   O
 106 N   6.9018   3.3661   -0.7156   N
 107 O   7.2864   1.3590   1.4188   O
 108 O   8.2584   3.3263   -0.8102   O
 109 O   6.1197   2.2607   -0.6878   O
 110 O   6.6784   4.3231   -2.1800   O
 111 N   4.6181   7.8124   3.0078   N
 112 O   3.6475   6.7706   2.5358   O
 113 O   3.8436   9.0695   2.7438   O
 114 N   3.5650   9.3317   -0.5518   N
 115 O   2.4315   8.4203   -0.1849   O
 116 O   3.6374   10.3543   0.5432   O
 117 N   6.3956   6.3232   -6.2214   N
 118 O   5.3828   5.5160   -6.9781   O
 119 O   7.7811   5.7861   -6.0162   O
 120 N   9.6303   11.0422   -7.3856   N
 121 O   9.8727   12.3789   -6.7497   O
 122 O   10.9866   10.5009   -7.7280   O
 123 O   8.6584   11.4090   -8.4677   O

@<TRIPOS>BOND
   1   1   4   1
   2   1  61   1
   3   1  70   1
   4   2   4   1
   5   2  60   1
   6   2  69   1
   7   3  15   1
   8   3  18   1
   9   3  70   1
  10   3   6   1
  11   3  34   1
  12   4   6   1
  13   5  16   1
  14   5  20   1
  15   5  64   1
  16   6  15   1
  17   7  11   1
  18   7   8   1
  19   7   9   1
  20   7  10   1
  21   8  43   1
  22   8  56   1
  23   9  54   1
  24   9  71   1
  25  10  61   1
  26  10  70   1
  27  12  13   1
  28  13  19   1
  29  13  21   1
  30  13  22   1
  31  14  25   1
  32  15  18   1
  33  15  69   1
  34  15  28   1
  35  16  20   1
  36  16  62   1
  37  16  63   1
  38  16  64   1
  39  16  28   1
  40  17  33   1
  41  18  20   1
  42  18  28   1
  43  18  34   1
  44  19  57   1
  45  20  64   1
  46  20  28   1
  47  20  36   1
  48  21  59   1
  49  22  50   1
  50  22  68   1
  51  23  41   1
  52  24  44   1
  53  24  73   1
  54  24  74   1
  55  24  88   1
  56  24  90   1
  57  24  86   1
  58  24 105   1
  59  24 109   1
  60  25  28   1
  61  25  32   1
  62  26 104   1
  63  27 106   1
  64  29 111   1
  65  30  81   1
  66  30  82   1
  67  30  83   1
  68  30  85   1
  69  30  93   1
  70  30 101   1
  71  31 114   1
  72  32  59   1
  73  32  62   1
  74  32  68   1
  75  32  69   1
  76  33  34   1
  77  33  36   1
  78  35 117   1
  79  36  64   1
  80  36  70   1
  81  37  39   1
  82  37  94   1
  83  37 102   1
  84  37 103   1
  85  37 123   1
  86  38 120   1
  87  39  96   1
  88  39  97   1
  89  39  98   1
  90  39 103   1
  91  39 119   1
  92  39 122   1
  93  40  67   1
  94  40  71   1
  95  40  79   1
  96  40  81   1
  97  41  58   1
  98  41  86   1
  99  41 100   1
 100  42  43   1
 101  42  44   1
 102  42  54   1
 103  42  73   1
 104  42  78   1
 105  42  79   1
 106  43  44   1
 107  43  46   1
 108  43  53   1
 109  43  54   1
 110  43  56   1
 111  44  45   1
 112  44  46   1
 113  44  51   1
 114  44  73   1
 115  44  74   1
 116  45  49   1
 117  45  51   1
 118  45  74   1
 119  45  75   1
 120  46  51   1
 121  46  53   1
 122  46  56   1
 123  46  60   1
 124  47  48   1
 125  47  49   1
 126  47  66   1
 127  47  75   1
 128  48  49   1
 129  48  50   1
 130  48  65   1
 131  48  66   1
 132  48  72   1
 133  48  75   1
 134  49  50   1
 135  49  51   1
 136  49  57   1
 137  49  75   1
 138  50  57   1
 139  50  68   1
 140  50  72   1
 141  51  57   1
 142  51  60   1
 143  52  62   1
 144  52  63   1
 145  52  65   1
 146  52  66   1
 147  52  72   1
 148  53  56   1
 149  54  71   1
 150  54  79   1
 151  55  63   1
 152  55  64   1
 153  55  67   1
 154  55  71   1
 155  56  60   1
 156  56  61   1
 157  57  59   1
 158  57  60   1
 159  59  60   1
 160  59  68   1
 161  59  69   1
 162  60  61   1
 163  60  69   1
 164  61  70   1
 165  62  63   1
 166  62  68   1
 167  62  72   1
 168  63  64   1
 169  63  66   1
 170  63  67   1
 171  64  70   1
 172  64  71   1
 173  65  66   1
 174  65  72   1
 175  66  67   1
 176  66  75   1
 177  66  77   1
 178  66  81   1
 179  67  71   1
 180  67  81   1
 181  68  72   1
 182  70  71   1
 183  71  79   1
 184  73  78   1
 185  73  86   1
 186  74  75   1
 187  74  90   1
 188  75  76   1
 189  75  77   1
 190  75  82   1
 191  75  87   1
 192  75  90   1
 193  76  87   1
 194  76  90   1
 195  77  81   1
 196  77  82   1
 197  78  79   1
 198  78  80   1
 199  78  84   1
 200  78 100   1
 201  78 107   1
 202  79  80   1
 203  79  81   1
 204  80  81   1
 205  80  83   1
 206  80  84   1
 207  81  82   1
 208  81  83   1
 209  82  87   1
 210  82 111   1
 211  83  84   1
 212  83  85   1
 213  84  85   1
 214  84  98   1
 215  84 106   1
 216  84 108   1
 217  85  93   1
 218  85  98   1
 219  85  99   1
 220  87  89   1
 221  87  90   1
 222  87  92   1
 223  87 101   1
 224  87 113   1
 225  87 116   1
 226  88  90   1
 227  88  91   1
 228  88  96   1
 229  88  98   1
 230  88 110   1
 231  89  90   1
 232  89  91   1
 233  89  92   1
 234  89 102   1
 235  90  91   1
 236  91  96   1
 237  91 102   1
 238  91 103   1
 239  91 118   1
 240  92  93   1
 241  92  94   1
 242  92 101   1
 243  92 102   1
 244  92 114   1
 245  93  94   1
 246  93  95   1
 247  93  99   1
 248  93 101   1
 249  94  95   1
 250  94 102   1
 251  94 121   1
 252  95  99   1
 253  95 121   1
 254  96  98   1
 255  96 119   1
 256  97  98   1
 257  97  99   1
 258  97 122   1
 259  98  99   1
 260  98 108   1
 261  99 122   1
 262 100 107   1
 263 101 113   1
 264 101 116   1
 265 102 103   1
 266 103 118   1
 267 104 105   1
 268 104 106   1
 269 104 107   1
 270 106 109   1
 271 106 108   1
 272 106 110   1
 273 111 112   1
 274 111 113   1
 275 114 115   1
 276 114 116   1
 277 117 118   1
 278 117 119   1
 279 120 121   1
 280 120 122   1
 281 120 123   1
