@<TRIPOS>MOLECULE
*****
 84 247 0 0 0
SMALL
GASTEIGER

@<TRIPOS>ATOM
   1 C   0.1474   -5.9857   13.1407   C
   2 C   0.9196   -6.5036   14.0598   C
   3 C   1.6969   -3.3218   16.1167   C
   4 C   0.3475   -6.5766   15.3781   C
   5 C   3.8337   -4.8078   11.6222   C
   6 C   -2.5084   -2.4199   10.8932   C
   7 C   -1.2667   -4.1523   17.1447   C
   8 C   -0.9062   -6.0667   15.5060   C
   9 C   0.4953   -2.7775   15.9261   C
  10 C   3.1787   -6.0369   16.8033   C
  11 C   0.5399   -5.3384   18.3095   C
  12 C   0.8596   -7.0140   16.4200   C
  13 C   2.1502   -3.7360   17.1609   C
  14 C   5.0738   1.2833   2.2369   C
  15 C   3.0873   2.3340   0.4306   C
  16 C   6.4226   3.1567   1.4406   C
  17 C   6.2463   4.3017   -0.1854   C
  18 C   5.5891   8.0429   2.4885   C
  19 C   8.4118   8.6631   2.9090   C
  20 C   4.6216   8.9811   -0.7137   C
  21 C   6.1162   7.3314   -5.8078   C
  22 C   6.1975   9.7209   -6.6815   C
  23 C   9.0831   10.1994   -6.8796   C
  24 C   9.2110   7.4393   -6.5604   C
  25 C   5.5749   0.1667   9.6812   C
  26 C   5.8809   0.0987   5.3187   C
  27 C   3.1355   -2.8813   7.2865   C
  28 C   2.7166   -1.6102   3.5685   C
  29 C   -1.2795   0.8015   4.8893   C
  30 C   0.6159   -2.5873   7.0976   C
  31 C   1.5491   3.4427   6.7428   C
  32 C   -0.9492   2.9367   10.1099   C
  33 C   -2.4277   1.3273   6.4589   C
  34 C   -3.1072   -0.6936   10.3827   C
  35 C   -0.8425   -2.4833   7.3217   C
  36 C   0.6167   1.4053   11.8415   C
  37 C   1.5923   -2.6894   7.4666   C
  38 C   5.3693   -1.5106   8.9886   C
  39 C   3.2297   0.6619   12.3696   C
  40 C   2.2248   -4.3204   8.8422   C
  41 C   -2.7745   -2.7118   9.1185   C
  42 C   -2.6396   -4.4512   12.6784   C
  43 C   -0.0392   -6.9901   10.1777   C
  44 C   3.3026   -5.3578   11.3399   C
  45 C   -0.7600   -1.9130   14.6903   C
  46 C   2.3262   0.9334   12.5185   C
  47 C   3.7124   -2.4770   14.4685   C
  48 C   -0.0773   1.8363   11.3285   C
  49 C   2.5634   4.1039   8.2713   C
  50 C   4.4485   1.2204   11.1633   C
  51 C   -1.5491   -1.4317   13.8814   C
  52 C   -2.6452   -5.8524   13.7127   C
  53 C   4.1469   -5.8926   13.8941   C
  54 C   5.9562   -1.8788   11.1145   C
  55 C   -1.2740   0.8397   12.1682   C
  56 C   4.4959   -0.3058   3.0799   C
  57 C   1.0769   1.9005   1.6932   C
  58 C   1.7413   4.9509   5.3446   C
  59 C   2.6848   5.9413   1.5253   C
  60 C   4.4475   6.2051   5.1742   C
  61 C   6.3658   0.8565   2.7718   C
  62 C   7.4297   0.9379   6.3883   C
  63 C   8.9808   4.0750   3.9590   C
  64 C   5.2142   5.4416   6.6370   C
  65 C   4.8282   7.4035   3.8359   C
  66 C   9.0314   6.8065   3.8691   C
  67 C   8.8710   4.1128   0.2676   C
  68 C   9.9897   7.7814   -0.3829   C
  69 C   4.1764   8.5448   2.0266   C
  70 C   5.3626   4.3891   -2.7039   C
  71 C   3.6069   8.8759   -2.2876   C
  72 C   1.5832   5.3675   0.1467   C
  73 C   4.7248   6.5070   -3.5945   C
  74 C   3.4837   10.1481   -2.3988   C
  75 C   8.1998   11.3592   -1.5991   C
  76 C   6.7558   12.4960   -5.3648   C
  77 C   10.0066   10.9378   -3.5697   C
  78 C   6.3514   5.9133   -5.1160   C
  79 C   9.9558   7.4129   -6.7664   C
  80 C   9.2913   4.8707   -2.2653   C
  81 C   11.5683   9.2146   -2.9555   C
  82 C   6.8504   10.7631   0.0457   C
  83 C   3.0609   9.9381   -5.5411   C
  84 C   5.3842   8.7889   -6.7105   C

@<TRIPOS>BOND
   1   1   2   1
   2   1  43   1
   3   1  52   1
   4   2   4   1
   5   2  12   1
   6   2  43   1
   7   2  44   1
   8   2  52   1
   9   2  53   1
  10   3   9   1
  11   3  13   1
  12   3  47   1
  13   4   8   1
  14   4  12   1
  15   4  52   1
  16   5  27   1
  17   5  38   1
  18   5  40   1
  19   5  44   1
  20   5  53   1
  21   5  54   1
  22   6  34   1
  23   6  41   1
  24   6  42   1
  25   6  51   1
  26   7   8   1
  27   7   9   1
  28   7  11   1
  29   7  13   1
  30   7  42   1
  31   7  45   1
  32   7  51   1
  33   7  52   1
  34   8  11   1
  35   8  12   1
  36   8  52   1
  37   9  13   1
  38   9  45   1
  39   9  46   1
  40   9  47   1
  41  10  11   1
  42  10  12   1
  43  10  13   1
  44  10  47   1
  45  10  53   1
  46  11  12   1
  47  11  13   1
  48  12  53   1
  49  13  47   1
  50  14  15   1
  51  14  16   1
  52  14  56   1
  53  14  61   1
  54  15  16   1
  55  15  17   1
  56  15  28   1
  57  15  56   1
  58  15  57   1
  59  15  70   1
  60  15  72   1
  61  16  17   1
  62  16  61   1
  63  16  67   1
  64  17  67   1
  65  17  70   1
  66  17  80   1
  67  18  19   1
  68  18  65   1
  69  18  69   1
  70  18  82   1
  71  19  64   1
  72  19  65   1
  73  19  66   1
  74  19  68   1
  75  19  75   1
  76  19  82   1
  77  20  69   1
  78  20  74   1
  79  20  82   1
  80  21  24   1
  81  21  73   1
  82  21  78   1
  83  21  84   1
  84  22  23   1
  85  22  24   1
  86  22  76   1
  87  22  83   1
  88  22  84   1
  89  23  24   1
  90  23  76   1
  91  23  77   1
  92  23  79   1
  93  23  81   1
  94  24  78   1
  95  24  79   1
  96  24  80   1
  97  24  84   1
  98  25  50   1
  99  25  54   1
 100  25  62   1
 101  25  64   1
 102  26  27   1
 103  26  28   1
 104  26  38   1
 105  26  56   1
 106  26  61   1
 107  26  62   1
 108  27  28   1
 109  27  30   1
 110  27  37   1
 111  27  38   1
 112  27  40   1
 113  28  29   1
 114  28  30   1
 115  28  35   1
 116  28  56   1
 117  28  57   1
 118  29  33   1
 119  29  35   1
 120  29  57   1
 121  29  58   1
 122  30  35   1
 123  30  37   1
 124  30  40   1
 125  30  43   1
 126  31  32   1
 127  31  33   1
 128  31  49   1
 129  31  58   1
 130  32  33   1
 131  32  34   1
 132  32  48   1
 133  32  49   1
 134  32  55   1
 135  32  58   1
 136  33  34   1
 137  33  35   1
 138  33  41   1
 139  33  58   1
 140  34  41   1
 141  34  51   1
 142  34  55   1
 143  35  41   1
 144  35  43   1
 145  36  45   1
 146  36  46   1
 147  36  48   1
 148  36  49   1
 149  36  55   1
 150  37  40   1
 151  38  54   1
 152  38  62   1
 153  39  46   1
 154  39  47   1
 155  39  50   1
 156  39  54   1
 157  40  43   1
 158  40  44   1
 159  41  42   1
 160  41  43   1
 161  42  43   1
 162  42  51   1
 163  42  52   1
 164  43  44   1
 165  43  52   1
 166  44  53   1
 167  45  46   1
 168  45  51   1
 169  45  55   1
 170  46  47   1
 171  46  49   1
 172  46  50   1
 173  47  53   1
 174  47  54   1
 175  48  49   1
 176  48  55   1
 177  49  50   1
 178  49  58   1
 179  49  60   1
 180  49  64   1
 181  50  54   1
 182  50  64   1
 183  51  55   1
 184  53  54   1
 185  54  62   1
 186  56  61   1
 187  57  58   1
 188  57  72   1
 189  58  59   1
 190  58  60   1
 191  58  65   1
 192  58  69   1
 193  58  72   1
 194  59  69   1
 195  59  72   1
 196  60  64   1
 197  60  65   1
 198  61  62   1
 199  61  63   1
 200  61  67   1
 201  62  63   1
 202  62  64   1
 203  63  64   1
 204  63  66   1
 205  63  67   1
 206  64  65   1
 207  64  66   1
 208  65  69   1
 209  66  67   1
 210  66  68   1
 211  67  68   1
 212  67  80   1
 213  68  75   1
 214  68  80   1
 215  68  81   1
 216  69  71   1
 217  69  72   1
 218  69  74   1
 219  69  82   1
 220  70  72   1
 221  70  73   1
 222  70  78   1
 223  70  80   1
 224  71  72   1
 225  71  73   1
 226  71  74   1
 227  71  83   1
 228  72  73   1
 229  73  78   1
 230  73  83   1
 231  73  84   1
 232  74  75   1
 233  74  76   1
 234  74  82   1
 235  74  83   1
 236  75  76   1
 237  75  77   1
 238  75  81   1
 239  75  82   1
 240  76  77   1
 241  76  83   1
 242  77  81   1
 243  78  80   1
 244  79  80   1
 245  79  81   1
 246  80  81   1
 247  83  84   1
