@<TRIPOS>MOLECULE
*****
 63 64 0 0 0
SMALL
GASTEIGER

@<TRIPOS>ATOM
   1 C    4.4547   -3.5400   -4.8441 C
   2 C    4.6608   -3.8477   -3.3903 C
   3 C    5.6252   -2.9074   -2.6886 C
   4 C    5.8165   -3.2299   -1.2022 C
   5 C    7.2788   -3.0188   -0.9520 C
   6 C    7.9372   -3.6044   -2.2140 C
   7 C    9.4430   -3.4435   -2.2833 C
   8 C    7.0475   -2.9454   -3.3087 C
   9 C    7.4405   -1.5647   -3.6596 C
  10 C    10.1964   -4.0374   -3.4706 C
  11 C    9.9915   -5.5459   -3.6895 C
  12 C    8.6890   -5.9575   -4.2797 C
  13 C    8.1604   -5.4973   -5.4139 C
  14 C    6.8524   -5.8858   -5.9307 C
  15 C    6.1917   -5.2556   -6.8895 C
  16 C    4.8201   -5.5699   -7.3260 C
  17 C    3.7688   -4.5661   -6.9031 C
  18 O    3.7926   -4.5265   -5.4466 O
  19 H    10.0123   -8.6192   -0.7208 H
  20 H    1.6840   -4.4292   -6.9085 H
  21 H    2.2598   -5.0725   -8.1188 H
  22 O    7.2876   -0.5897   -3.2462 O
  23 C    8.1236   -2.9495    1.2729 C
  24 C    8.2009   -3.7405    2.5227 C
  25 C    3.7927   -2.8167    0.0299 C
  26 O    10.1381   -6.1629   -2.3758 O
  27 O    10.8329   -8.0698   -3.3087 O
  28 C    2.3873   -4.9232   -7.3260 C
  29 O    7.6885   -3.6992    0.2462 O
  30 O    8.4571   -1.8154    1.1546 O
  31 O    5.0257   -2.3944   -0.3794 O
  32 C    11.6797   -3.7264   -3.3183 C
  33 C    10.5582   -7.4273   -2.3405 C
  34 C    10.6466   -7.9263   -0.9356 C
  35 O    4.8521   -2.5486   -5.3990 O
  36 H    3.9514   -4.0993   -2.9783 H
  37 H    5.3234   -2.0867   -2.7471 H
  38 H    7.4775   -2.0703   -0.9248 H
  39 H    9.6318   -2.4662   -2.2711 H
  40 H    9.9347   -3.6621   -4.2430 H
  41 H    8.2904   -6.6644   -3.9710 H
  42 H    6.4473   -6.7139   -5.6438 H
  43 H    4.5255   -6.6644   -7.1397 H
  44 H    4.0851   -3.7693   -7.2349 H
  45 H    8.1307   -1.5671   -4.4198 H
  46 H    8.6207   -2.8538    3.0871 H
  47 H    11.8779   -2.7796   -3.2367 H
  48 H    12.0984   -4.0745   -2.5567 H
  49 H    4.8380   -4.6931   -3.2639 H
  50 H    5.6038   -4.1735   -1.1287 H
  51 H    7.6759   -4.5364   -2.2167 H
  52 H    9.8781   -3.8353   -1.4959 H
  53 H    10.6467   -5.9551   -4.2974 H
  54 H    8.6526   -4.8168   -5.8478 H
  55 H    6.5392   -4.6106   -7.2349 H
  56 H    4.6882   -5.7653   -8.2140 H
  57 H    7.1278   -3.4971   -4.1206 H
  58 H    7.5971   -4.0993    2.7471 H
  59 H    8.4503   -4.6931    2.2847 H
  60 H    12.0274   -4.0250   -4.0934 H
  61 H    10.5892   -7.1923   -0.2448 H
  62 H    11.4385   -8.1655   -1.0472 H
  63 H    2.1735   -5.9056   -6.8269 H
@<TRIPOS>BOND
   1   1   2   1
   1   1  18   1
   1   1  35   1
   1   2   3   1
   1   2  36   1
   1   2  49   1
   1   3   4   1
   1   3   8   1
   1   3  37   1
   1   4   5   1
   1   4  31   1
   1   4  50   1
   1   5   6   1
   1   5  29   1
   1   5  38   1
   1   6   7   1
   1   6   8   1
   1   6  51   1
   1   7  10   1
   1   7  39   1
   1   7  52   1
   1   8   9   1
   1   8  57   1
   1   9  22   1
   1   9  45   1
   1  10  11   1
   1  10  32   1
   1  10  40   1
   1  11  12   1
   1  11  26   1
   1  11  53   1
   1  12  13   1
   1  12  41   1
   1  13  14   1
   1  13  54   1
   1  14  15   1
   1  14  42   1
   1  15  16   1
   1  15  55   1
   1  16  17   1
   1  16  43   1
   1  16  56   1
   1  17  18   1
   1  17  28   1
   1  17  44   1
   1  19  34   1
   1  20  28   1
   1  21  28   1
   1  23  24   1
   1  23  29   1
   1  23  30   1
   1  24  46   1
   1  24  58   1
   1  24  59   1
   1  25  31   1
   1  26  33   1
   1  27  33   1
   1  28  63   1
   1  32  47   1
   1  32  48   1
   1  32  60   1
   1  33  34   1
   1  34  61   1
   1  34  62   1
