@<TRIPOS>MOLECULE
*****
 70 170 0 0 0
SMALL
GASTEIGER

@<TRIPOS>ATOM
   1 N   2.4134   -6.5731   -3.8766   N
   2 C   2.9008   -2.7169   -4.4597   C
   3 O   1.6721   -7.6775   -4.5701   O
   4 O   2.4473   -6.5183   -2.3780   O
   5 N   5.7283   -0.2699   -0.7922   N
   6 C   9.6182   -7.1142   -5.2990   C
   7 C   8.9709   -6.7879   -6.3717   C
   8 O   5.1430   -1.4726   -0.1134   O
   9 O   5.5139   1.0969   -0.2126   O
  10 C   7.6952   -6.8309   -7.2100   C
  11 C   6.8747   -6.3615   -8.1347   C
  12 N   10.5996   -6.8777   -5.9696   N
  13 N   2.9438   -5.7860   -4.4804   N
  14 O   10.1349   -5.4592   -6.1177   O
  15 O   10.9446   -7.6848   -7.1859   O
  16 C   8.8274   -9.9134   -0.3194   C
  17 C   0.3591   -3.4985   -6.1220   C
  18 C   1.9789   -5.4015   -9.8661   C
  19 N   6.3280   -0.3929   -1.7360   N
  20 C   7.9899   0.8536   -4.0608   C
  21 C   5.7865   -0.4108   -4.2233   C
  22 N   9.5350   -0.3607   3.4519   N
  23 C   9.8086   -3.4497   0.8846   C
  24 C   6.4387   -2.4492   1.6612   C
  25 C   3.1799   -4.4312   -0.4779   C
  26 C   2.7808   -1.7586   1.0771   C
  27 C   3.0528   -2.0754   -1.4340   C
  28 C   4.5326   -3.5579   1.4939   C
  29 O   9.8150   1.1085   3.3372   O
  30 O   9.5839   -1.0244   4.7962   O
  31 N   6.0266   0.2282   0.4426   N
  32 N   10.6893   -7.3362   -4.9462   N
  33 C   11.3905   -9.7720   -3.1309   C
  34 C   9.1286   -8.6392   -3.4144   C
  35 C   12.5372   -7.5005   -3.2031   C
  36 O   5.1856   1.1121   1.3152   O
  37 O   7.3808   0.6892   -0.0084   O
  38 N   4.5176   -2.1846   -8.0677   N
  39 N   9.1205   -0.9202   2.5683   N
  40 O   3.5944   -3.2104   -9.0285   O
  41 C   6.7959   -1.2808   1.5956   C
  42 C   10.1184   -2.3499   0.7136   C
  43 N   5.6416   -0.7805   0.1265   N
  44 O   4.8061   -0.9140   -8.9372   O
  45 N   4.5312   -2.3095   -7.1539   N
  46 C   3.3102   -1.7087   -5.0026   C
  47 C   2.4633   -4.6270   -2.1139   C
  48 C   4.7034   -0.4012   -2.8672   C
  49 C   7.8463   -0.3092   -0.8743   C
  50 C   9.9733   -0.6990   -2.2490   C
  51 C   7.4641   -8.1298   -3.3310   C
  52 C   5.6920   -8.2577   -5.1088   C
  53 C   4.0638   -8.3795   -6.8477   C
  54 C   9.3408   -1.5714   -5.7524   C
  55 C   9.2884   -1.4437   3.9847   C
  56 C   12.2452   -1.0240   -3.0854   C
  57 C   12.9034   -4.7437   -1.0924   C
  58 C   5.2032   -6.4363   -3.0031   C
  59 C   5.2090   -5.9244   -0.9925   C
  60 C   10.6763   -4.5540   -0.0515   C
  61 C   11.8466   -6.7042   -5.4106   C
  62 C   9.5899   -3.5211   -6.6739   C
  63 C   7.3115   -3.1773   -8.0025   C
  64 C   4.4299   -6.1483   -9.9537   C
  65 C   6.1232   -4.9752   3.2949   C
  66 C   8.8935   -6.3857   1.8619   C
  67 C   12.7223   -4.6218   -5.6429   C
  68 C   10.4867   -5.8836   0.9868   C
  69 C   13.1462   -8.6813   -1.2876   C
  70 C   1.8306   -7.4809   -6.0265   C

@<TRIPOS>BOND
   1   1  13   1
   2   1   3   1
   3   1   4   1
   4   2  17   1
   5   2  27   1
   6   2  46   1
   7   3  70   1
   8   4  47   1
   9   4  58   1
  10   5  19   1
  11   5   8   1
  12   5   9   1
  13   6   7   1
  14   6  33   1
  15   6  34   1
  16   6  14   1
  17   7  10   1
  18   7  11   1
  19   7  34   1
  20   7  61   1
  21   7  62   1
  22   7  14   1
  23   8  48   1
  24   8  36   1
  25   9  20   1
  26   9  49   1
  27  10  11   1
  28  10  34   1
  29  10  52   1
  30  10  53   1
  31  11  53   1
  32  11  62   1
  33  11  63   1
  34  11  64   1
  35  12  32   1
  36  12  14   1
  37  12  15   1
  38  15  33   1
  39  15  61   1
  40  16  33   1
  41  16  34   1
  42  16  51   1
  43  16  59   1
  44  16  66   1
  45  16  68   1
  46  16  69   1
  47  17  18   1
  48  17  27   1
  49  17  46   1
  50  17  47   1
  51  17  70   1
  52  17  38   1
  53  18  53   1
  54  18  64   1
  55  18  70   1
  56  18  38   1
  57  20  21   1
  58  20  48   1
  59  20  49   1
  60  20  50   1
  61  20  54   1
  62  20  56   1
  63  20  38   1
  64  21  46   1
  65  21  48   1
  66  21  44   1
  67  21  38   1
  68  22  39   1
  69  22  29   1
  70  22  30   1
  71  23  42   1
  72  23  55   1
  73  23  60   1
  74  23  68   1
  75  24  26   1
  76  24  28   1
  77  24  41   1
  78  24  55   1
  79  24  65   1
  80  25  26   1
  81  25  28   1
  82  25  47   1
  83  25  59   1
  84  25  65   1
  85  26  27   1
  86  26  28   1
  87  26  41   1
  88  26  47   1
  89  26  48   1
  90  26  36   1
  91  27  46   1
  92  27  47   1
  93  27  48   1
  94  28  65   1
  95  29  41   1
  96  29  49   1
  97  29  50   1
  98  30  42   1
  99  30  55   1
 100  31  43   1
 101  31  36   1
 102  31  37   1
 103  33  34   1
 104  33  35   1
 105  33  61   1
 106  33  69   1
 107  34  51   1
 108  34  52   1
 109  35  57   1
 110  35  61   1
 111  35  67   1
 112  35  69   1
 113  37  41   1
 114  37  48   1
 115  37  49   1
 116  38  45   1
 117  38  40   1
 118  38  44   1
 119  38  46   1
 120  38  54   1
 121  38  63   1
 122  38  64   1
 123  41  49   1
 124  41  55   1
 125  42  50   1
 126  42  55   1
 127  42  56   1
 128  42  57   1
 129  42  60   1
 130  44  46   1
 131  46  48   1
 132  47  58   1
 133  47  59   1
 134  47  70   1
 135  49  50   1
 136  50  56   1
 137  51  52   1
 138  51  58   1
 139  51  59   1
 140  52  53   1
 141  52  58   1
 142  52  70   1
 143  53  64   1
 144  53  70   1
 145  54  56   1
 146  54  62   1
 147  54  63   1
 148  54  67   1
 149  55  65   1
 150  55  66   1
 151  55  68   1
 152  56  57   1
 153  56  67   1
 154  57  60   1
 155  57  67   1
 156  57  68   1
 157  57  69   1
 158  58  59   1
 159  58  70   1
 160  59  65   1
 161  59  66   1
 162  60  68   1
 163  61  62   1
 164  61  67   1
 165  62  63   1
 166  62  67   1
 167  63  64   1
 168  65  66   1
 169  66  68   1
 170  68  69   1
