@<TRIPOS>MOLECULE
*****
 53 153 0 0 0
SMALL
GASTEIGER

@<TRIPOS>ATOM
   1 C   2.9008   -2.7169   -4.4597   C
   2 C   9.6182   -7.1142   -5.2990   C
   3 C   8.9709   -6.7879   -6.3717   C
   4 C   7.6952   -6.8309   -7.2100   C
   5 C   6.8747   -6.3615   -8.1347   C
   6 C   2.9438   -5.7860   -4.4804   C
   7 C   8.8274   -9.9134   -0.3194   C
   8 C   0.3591   -3.4985   -6.1220   C
   9 C   1.9789   -5.4015   -9.8661   C
  10 C   6.3280   -0.3929   -1.7360   C
  11 C   7.9899   0.8536   -4.0608   C
  12 C   5.7865   -0.4108   -4.2233   C
  13 C   9.8086   -3.4497   0.8846   C
  14 C   6.4387   -2.4492   1.6612   C
  15 C   3.1799   -4.4312   -0.4779   C
  16 C   2.7808   -1.7586   1.0771   C
  17 C   3.0528   -2.0754   -1.4340   C
  18 C   4.5326   -3.5579   1.4939   C
  19 C   10.6893   -7.3362   -4.9462   C
  20 C   11.3905   -9.7720   -3.1309   C
  21 C   9.1286   -8.6392   -3.4144   C
  22 C   12.5372   -7.5005   -3.2031   C
  23 C   9.1205   -0.9202   2.5683   C
  24 C   6.7959   -1.2808   1.5956   C
  25 C   10.1184   -2.3499   0.7136   C
  26 C   5.6416   -0.7805   0.1265   C
  27 C   4.5312   -2.3095   -7.1539   C
  28 C   3.3102   -1.7087   -5.0026   C
  29 C   2.4633   -4.6270   -2.1139   C
  30 C   4.7034   -0.4012   -2.8672   C
  31 C   7.8463   -0.3092   -0.8743   C
  32 C   9.9733   -0.6990   -2.2490   C
  33 C   7.4641   -8.1298   -3.3310   C
  34 C   5.6920   -8.2577   -5.1088   C
  35 C   4.0638   -8.3795   -6.8477   C
  36 C   4.7045   -2.2092   -7.8847   C
  37 C   9.3408   -1.5714   -5.7524   C
  38 C   9.2884   -1.4437   3.9847   C
  39 C   12.2452   -1.0240   -3.0854   C
  40 C   12.9034   -4.7437   -1.0924   C
  41 C   5.2032   -6.4363   -3.0031   C
  42 C   5.2090   -5.9244   -0.9925   C
  43 C   10.6763   -4.5540   -0.0515   C
  44 C   11.8466   -6.7042   -5.4106   C
  45 C   9.5899   -3.5211   -6.6739   C
  46 C   7.3115   -3.1773   -8.0025   C
  47 C   4.4299   -6.1483   -9.9537   C
  48 C   6.1232   -4.9752   3.2949   C
  49 C   8.8935   -6.3857   1.8619   C
  50 C   12.7223   -4.6218   -5.6429   C
  51 C   10.4867   -5.8836   0.9868   C
  52 C   13.1462   -8.6813   -1.2876   C
  53 C   1.8306   -7.4809   -6.0265   C

@<TRIPOS>BOND
   1   1   8   1
   2   1  17   1
   3   1  28   1
   4   2   3   1
   5   2  19   1
   6   2  20   1
   7   2  21   1
   8   3   4   1
   9   3   5   1
  10   3  19   1
  11   3  21   1
  12   3  44   1
  13   3  45   1
  14   4   5   1
  15   4  21   1
  16   4  34   1
  17   4  35   1
  18   5  35   1
  19   5  45   1
  20   5  46   1
  21   5  47   1
  22   6  29   1
  23   6  41   1
  24   6  53   1
  25   7  20   1
  26   7  21   1
  27   7  33   1
  28   7  42   1
  29   7  49   1
  30   7  51   1
  31   7  52   1
  32   8   9   1
  33   8  17   1
  34   8  28   1
  35   8  29   1
  36   8  36   1
  37   8  53   1
  38   9  35   1
  39   9  36   1
  40   9  47   1
  41   9  53   1
  42  10  11   1
  43  10  26   1
  44  10  30   1
  45  10  31   1
  46  11  12   1
  47  11  30   1
  48  11  31   1
  49  11  32   1
  50  11  36   1
  51  11  37   1
  52  11  39   1
  53  12  27   1
  54  12  28   1
  55  12  30   1
  56  12  36   1
  57  13  25   1
  58  13  38   1
  59  13  43   1
  60  13  51   1
  61  14  16   1
  62  14  18   1
  63  14  24   1
  64  14  38   1
  65  14  48   1
  66  15  16   1
  67  15  18   1
  68  15  29   1
  69  15  42   1
  70  15  48   1
  71  16  17   1
  72  16  18   1
  73  16  24   1
  74  16  26   1
  75  16  29   1
  76  16  30   1
  77  17  28   1
  78  17  29   1
  79  17  30   1
  80  18  48   1
  81  19  20   1
  82  19  44   1
  83  20  21   1
  84  20  22   1
  85  20  44   1
  86  20  52   1
  87  21  33   1
  88  21  34   1
  89  22  40   1
  90  22  44   1
  91  22  50   1
  92  22  52   1
  93  23  24   1
  94  23  25   1
  95  23  31   1
  96  23  32   1
  97  23  38   1
  98  24  26   1
  99  24  31   1
 100  24  38   1
 101  25  32   1
 102  25  38   1
 103  25  39   1
 104  25  40   1
 105  25  43   1
 106  26  30   1
 107  26  31   1
 108  27  28   1
 109  27  36   1
 110  28  30   1
 111  28  36   1
 112  29  41   1
 113  29  42   1
 114  29  53   1
 115  31  32   1
 116  32  39   1
 117  33  34   1
 118  33  41   1
 119  33  42   1
 120  34  35   1
 121  34  41   1
 122  34  53   1
 123  35  47   1
 124  35  53   1
 125  36  37   1
 126  36  46   1
 127  36  47   1
 128  37  39   1
 129  37  45   1
 130  37  46   1
 131  37  50   1
 132  38  48   1
 133  38  49   1
 134  38  51   1
 135  39  40   1
 136  39  50   1
 137  40  43   1
 138  40  50   1
 139  40  51   1
 140  40  52   1
 141  41  42   1
 142  41  53   1
 143  42  48   1
 144  42  49   1
 145  43  51   1
 146  44  45   1
 147  44  50   1
 148  45  46   1
 149  45  50   1
 150  46  47   1
 151  48  49   1
 152  49  51   1
 153  51  52   1
