@<TRIPOS>MOLECULE
*****
 101 202 0 0 0
SMALL
GASTEIGER

@<TRIPOS>ATOM
   1 N   0.1073   4.1983   5.8820   N
   2 O   -0.8931   5.2025   5.3910   O
   3 O   -0.1971   3.2895   7.0962   O
   4 N   0.9566   2.3226   7.4620   N
   5 O   0.8306   1.3632   8.6082   O
   6 C   3.0893   4.9856   3.1346   C
   7 N   1.1031   4.0989   5.3681   N
   8 C   3.3921   5.1751   5.6550   C
   9 C   2.0008   2.7044   3.4369   C
  10 N   3.3467   0.6042   2.2976   N
  11 N   1.8983   2.3435   6.8469   N
  12 C   2.7169   1.1261   4.7666   C
  13 C   4.0933   3.6278   6.9590   C
  14 O   3.5467   1.8990   1.5672   O
  15 O   2.3175   -0.3761   1.8183   O
  16 N   6.4482   -1.6800   7.6930   N
  17 O   5.4865   -2.7897   7.3871   O
  18 O   7.3759   -1.7937   8.8662   O
  19 N   3.1384   0.6795   4.4383   N
  20 N   3.9687   0.3683   3.2049   N
  21 C   4.7238   -1.5630   5.5330   C
  22 C   3.7290   0.7738   5.7065   C
  23 C   5.9063   -0.7922   3.4468   C
  24 O   4.3904   0.7938   5.2565   O
  25 N   6.4760   -0.7639   7.0406   N
  26 C   7.7834   -0.0674   4.9705   C
  27 C   5.2576   1.4711   7.0231   C
  28 O   2.0627   -0.2841   4.8440   O
  29 N   1.4184   3.9208   -1.0684   N
  30 O   0.2324   3.0312   -0.8406   O
  31 O   1.4418   4.8533   -2.2432   O
  32 N   8.4992   5.6567   2.4468   N
  33 O   8.3510   4.3648   1.6992   O
  34 N   3.0061   1.3164   3.5204   N
  35 C   1.2920   2.1982   1.0701   C
  36 C   3.5655   1.0533   1.0511   C
  37 C   2.0233   3.6175   3.0526   C
  38 O   9.5471   6.6469   2.0328   O
  39 N   2.2894   3.8904   -0.3570   N
  40 C   2.9219   5.1404   1.7684   C
  41 C   4.4438   2.5429   -0.2058   C
  42 N   5.0884   7.8818   7.6811   N
  43 O   6.0576   9.0000   7.4354   O
  44 O   4.0934   7.9838   8.7990   O
  45 N   8.4776   5.6392   4.6411   N
  46 O   7.1499   5.5066   5.3263   O
  47 O   9.4780   6.6434   5.1321   O
  48 N   7.8243   5.8830   3.3180   N
  49 C   6.9224   7.7954   5.6091   C
  50 C   7.9225   5.4647   5.8271   C
  51 C   5.9063   7.0255   3.4468   C
  52 N   10.8560   2.3226   -0.5683   N
  53 N   5.1036   6.9695   7.0231   N
  54 C   3.8995   6.2657   4.8936   C
  55 C   6.3564   4.7536   7.0470   C
  56 O   11.9866   3.2522   -0.2406   O
  57 O   10.9820   1.3632   -1.7145   O
  58 N   8.6742   0.6795   2.4553   N
  59 O   7.4222   0.7939   1.6372   O
  60 O   9.7498   -0.2840   2.0496   O
  61 N   10.3941   3.9208   7.9621   N
  62 O   11.5801   3.0312   7.7343   O
  63 O   10.3707   4.8533   9.1368   O
  64 N   8.4658   0.6042   4.5961   N
  65 O   8.2659   1.8990   5.3265   O
  66 N   8.7232   4.9856   3.7590   N
  67 C   10.7094   4.0989   1.5255   C
  68 C   8.4205   5.1751   1.2386   C
  69 C   9.8118   2.7044   3.4568   C
  70 O   9.4951   -0.3761   5.0754   O
  71 N   9.9142   2.3435   0.0467   N
  72 C   9.0957   1.1261   2.1271   C
  73 C   7.7192   3.6278   -0.0654   C
  74 N   5.3643   -1.6800   -0.7993   N
  75 O   6.3261   -2.7897   -0.4934   O
  76 O   4.4366   -1.7937   -1.9725   O
  77 N   3.3134   5.6567   4.4468   N
  78 O   3.4615   4.3648   5.1945   O
  79 O   2.2654   6.6469   4.8608   O
  80 N   8.8065   1.3164   3.3732   N
  81 C   10.5206   2.1982   5.8236   C
  82 C   8.2471   1.0532   5.8426   C
  83 C   9.7892   3.6176   3.8411   C
  84 N   6.7242   7.8818   -0.7875   N
  85 N   9.5232   3.8904   7.2507   N
  86 C   8.8906   5.1404   5.1252   C
  87 C   7.3687   2.5429   7.0994   C
  88 O   5.7550   9.0000   -0.5417   O
  89 O   7.7192   7.9838   -1.9053   O
  90 N   7.8439   0.3683   3.6888   N
  91 C   7.0888   -1.5630   1.3607   C
  92 C   8.0835   0.7738   1.1872   C
  93 N   5.3365   -0.7639   -0.1470   N
  94 C   4.0292   -0.0673   1.9232   C
  95 C   6.5550   1.4711   -0.1295   C
  96 N   3.9882   5.8830   3.5756   N
  97 C   4.8902   7.7954   1.2845   C
  98 C   3.8901   5.4647   1.0666   C
  99 N   6.7090   6.9695   -0.1295   N
 100 C   7.9131   6.2657   2.0000   C
 101 C   5.4562   4.7536   -0.1534   C

@<TRIPOS>BOND
   1   1   7   1
   2   1   2   1
   3   1   3   1
   4   2   6   1
   5   2   8   1
   6   2  35   1
   7   2  37   1
   8   2  40   1
   9   2  54   1
  10   3   9   1
  11   3   4   1
  12   3   8   1
  13   3  13   1
  14   4  11   1
  15   4   5   1
  16   5  12   1
  17   5  22   1
  18   5  27   1
  19   6  40   1
  20   6  54   1
  21   6  78   1
  22   8  13   1
  23   8  54   1
  24   8  44   1
  25   9  12   1
  26   9  35   1
  27  10  20   1
  28  10  14   1
  29  10  15   1
  30  12  21   1
  31  12  22   1
  32  12  35   1
  33  12  15   1
  34  12  28   1
  35  13  27   1
  36  13  55   1
  37  13  44   1
  38  14  24   1
  39  15  21   1
  40  15  94   1
  41  16  25   1
  42  16  17   1
  43  16  18   1
  44  17  21   1
  45  17  22   1
  46  17  23   1
  47  17  27   1
  48  18  26   1
  49  18  82   1
  50  18  87   1
  51  19  34   1
  52  19  24   1
  53  19  28   1
  54  21  22   1
  55  21  23   1
  56  21  94   1
  57  22  27   1
  58  23  26   1
  59  23  91   1
  60  23  94   1
  61  23  75   1
  62  24  94   1
  63  26  81   1
  64  26  82   1
  65  26  91   1
  66  26  59   1
  67  26  70   1
  68  27  55   1
  69  27  87   1
  70  28  35   1
  71  29  39   1
  72  29  30   1
  73  29  31   1
  74  30  35   1
  75  30  36   1
  76  30  37   1
  77  30  41   1
  78  31  40   1
  79  31  98   1
  80  31 101   1
  81  32  48   1
  82  32  33   1
  83  32  38   1
  84  33  46   1
  85  35  36   1
  86  35  37   1
  87  35  94   1
  88  36  41   1
  89  36  94   1
  90  36  76   1
  91  37  40   1
  92  38  49   1
  93  38  86   1
  94  38 100   1
  95  40  97   1
  96  40  98   1
  97  40  79   1
  98  41  95   1
  99  41 101   1
 100  41  76   1
 101  42  53   1
 102  42  43   1
 103  42  44   1
 104  43  49   1
 105  43  51   1
 106  43  55   1
 107  44  54   1
 108  45  66   1
 109  45  46   1
 110  45  47   1
 111  46 100   1
 112  47  67   1
 113  47  86   1
 114  49  50   1
 115  49  51   1
 116  49  55   1
 117  49  86   1
 118  49 100   1
 119  50  55   1
 120  50  86   1
 121  50  63   1
 122  51  54   1
 123  51  97   1
 124  51 100   1
 125  51  88   1
 126  52  71   1
 127  52  56   1
 128  52  57   1
 129  54  97   1
 130  54  79   1
 131  55  87   1
 132  55  63   1
 133  56  67   1
 134  56  68   1
 135  56  69   1
 136  56  73   1
 137  57  72   1
 138  57  92   1
 139  57  95   1
 140  58  80   1
 141  58  59   1
 142  58  60   1
 143  59  65   1
 144  60  72   1
 145  60  81   1
 146  61  85   1
 147  61  62   1
 148  61  63   1
 149  62  81   1
 150  62  82   1
 151  62  83   1
 152  62  87   1
 153  63  86   1
 154  64  90   1
 155  64  65   1
 156  64  70   1
 157  67  68   1
 158  67  69   1
 159  67  81   1
 160  67  83   1
 161  67  86   1
 162  67 100   1
 163  68  73   1
 164  68 100   1
 165  68  89   1
 166  69  72   1
 167  69  81   1
 168  70  72   1
 169  70  91   1
 170  72  81   1
 171  72  91   1
 172  72  92   1
 173  73  95   1
 174  73 101   1
 175  73  89   1
 176  74  93   1
 177  74  75   1
 178  74  76   1
 179  75  91   1
 180  75  92   1
 181  75  95   1
 182  76  94   1
 183  77  96   1
 184  77  78   1
 185  77  79   1
 186  79  97   1
 187  81  82   1
 188  81  83   1
 189  82  87   1
 190  83  86   1
 191  84  99   1
 192  84  88   1
 193  84  89   1
 194  88  97   1
 195  88 101   1
 196  89 100   1
 197  91  92   1
 198  92  95   1
 199  95 101   1
 200  97  98   1
 201  97 101   1
 202  98 101   1
