@<TRIPOS>MOLECULE
*****
 56 162 0 0 0
SMALL
GASTEIGER

@<TRIPOS>ATOM
   1 C   3.0893   4.9856   3.1346   C
   2 C   1.1031   4.0989   5.3681   C
   3 C   3.3921   5.1751   5.6550   C
   4 C   2.0008   2.7044   3.4369   C
   5 C   1.8983   2.3435   6.8469   C
   6 C   2.7169   1.1261   4.7666   C
   7 C   4.0933   3.6278   6.9590   C
   8 C   3.9687   0.3683   3.2049   C
   9 C   4.7238   -1.5630   5.5330   C
  10 C   3.7290   0.7738   5.7065   C
  11 C   6.1985   -0.7922   3.6066   C
  12 C   6.4760   -0.7639   7.0406   C
  13 C   7.7834   -0.0674   4.9705   C
  14 C   5.2576   1.4711   7.0231   C
  15 C   3.0061   1.3164   3.5204   C
  16 C   1.2920   2.1982   1.0701   C
  17 C   3.5655   1.0533   1.0511   C
  18 C   2.0233   3.6175   3.0526   C
  19 C   2.2894   3.8904   -0.3570   C
  20 C   2.9219   5.1404   1.7684   C
  21 C   4.4438   2.5429   -0.2058   C
  22 C   7.8243   5.8830   3.3180   C
  23 C   6.9224   7.7954   5.6091   C
  24 C   7.9225   5.4647   5.8271   C
  25 C   5.5667   7.0255   3.5968   C
  26 C   5.1036   6.9695   7.0231   C
  27 C   3.8995   6.2657   4.8936   C
  28 C   6.3564   4.7536   7.0470   C
  29 C   8.7232   4.9856   3.7590   C
  30 C   10.7094   4.0989   1.5255   C
  31 C   8.4205   5.1751   1.2386   C
  32 C   9.8118   2.7044   3.4568   C
  33 C   9.9142   2.3435   0.0467   C
  34 C   9.0957   1.1261   2.1271   C
  35 C   7.7192   3.6278   -0.0654   C
  36 C   8.8065   1.3164   3.3732   C
  37 C   10.5206   2.1982   5.8236   C
  38 C   8.2471   1.0532   5.8426   C
  39 C   9.7892   3.6176   3.8411   C
  40 C   9.5232   3.8904   7.2507   C
  41 C   8.8906   5.1404   5.1252   C
  42 C   7.3687   2.5429   7.0994   C
  43 C   7.8439   0.3683   3.6888   C
  44 C   7.0888   -1.5630   1.3607   C
  45 C   8.0835   0.7738   1.1872   C
  46 C   5.6141   -0.7922   3.2871   C
  47 C   5.3365   -0.7639   -0.1470   C
  48 C   4.0292   -0.0673   1.9232   C
  49 C   6.5550   1.4711   -0.1295   C
  50 C   3.9882   5.8830   3.5756   C
  51 C   4.8902   7.7954   1.2845   C
  52 C   3.8901   5.4647   1.0666   C
  53 C   6.2459   7.0255   3.2968   C
  54 C   6.7090   6.9695   -0.1295   C
  55 C   7.9131   6.2657   2.0000   C
  56 C   5.4562   4.7536   -0.1534   C

@<TRIPOS>BOND
   1   1   2   1
   2   1  20   1
   3   1  27   1
   4   1  50   1
   5   2   3   1
   6   2   4   1
   7   2   5   1
   8   2  16   1
   9   2  18   1
  10   2  20   1
  11   2  27   1
  12   3   5   1
  13   3   7   1
  14   3  26   1
  15   3  27   1
  16   4   5   1
  17   4   6   1
  18   4  16   1
  19   5   6   1
  20   5   7   1
  21   5  10   1
  22   5  14   1
  23   6   8   1
  24   6   9   1
  25   6  10   1
  26   6  15   1
  27   6  16   1
  28   7  14   1
  29   7  26   1
  30   7  28   1
  31   8   9   1
  32   8  15   1
  33   8  48   1
  34   9  10   1
  35   9  11   1
  36   9  12   1
  37   9  46   1
  38   9  48   1
  39  10  12   1
  40  10  14   1
  41  11  12   1
  42  11  13   1
  43  11  44   1
  44  11  46   1
  45  12  13   1
  46  12  14   1
  47  12  38   1
  48  12  42   1
  49  13  36   1
  50  13  37   1
  51  13  38   1
  52  13  43   1
  53  13  44   1
  54  14  28   1
  55  14  42   1
  56  15  16   1
  57  15  48   1
  58  16  17   1
  59  16  18   1
  60  16  19   1
  61  16  48   1
  62  17  19   1
  63  17  21   1
  64  17  47   1
  65  17  48   1
  66  18  19   1
  67  18  20   1
  68  19  20   1
  69  19  21   1
  70  19  52   1
  71  19  56   1
  72  20  50   1
  73  20  51   1
  74  20  52   1
  75  21  47   1
  76  21  49   1
  77  21  56   1
  78  22  23   1
  79  22  29   1
  80  22  41   1
  81  22  55   1
  82  23  24   1
  83  23  25   1
  84  23  26   1
  85  23  28   1
  86  23  41   1
  87  23  53   1
  88  23  55   1
  89  24  28   1
  90  24  40   1
  91  24  41   1
  92  25  26   1
  93  25  27   1
  94  25  51   1
  95  25  53   1
  96  26  27   1
  97  26  28   1
  98  27  50   1
  99  27  51   1
 100  28  40   1
 101  28  42   1
 102  29  30   1
 103  29  41   1
 104  29  55   1
 105  30  31   1
 106  30  32   1
 107  30  33   1
 108  30  37   1
 109  30  39   1
 110  30  41   1
 111  30  55   1
 112  31  33   1
 113  31  35   1
 114  31  54   1
 115  31  55   1
 116  32  33   1
 117  32  34   1
 118  32  37   1
 119  33  34   1
 120  33  35   1
 121  33  45   1
 122  33  49   1
 123  34  36   1
 124  34  37   1
 125  34  43   1
 126  34  44   1
 127  34  45   1
 128  35  49   1
 129  35  54   1
 130  35  56   1
 131  36  37   1
 132  36  43   1
 133  37  38   1
 134  37  39   1
 135  37  40   1
 136  38  40   1
 137  38  42   1
 138  39  40   1
 139  39  41   1
 140  40  41   1
 141  40  42   1
 142  43  44   1
 143  44  45   1
 144  44  46   1
 145  44  47   1
 146  45  47   1
 147  45  49   1
 148  46  47   1
 149  46  48   1
 150  47  48   1
 151  47  49   1
 152  49  56   1
 153  50  51   1
 154  51  52   1
 155  51  53   1
 156  51  54   1
 157  51  56   1
 158  52  56   1
 159  53  54   1
 160  53  55   1
 161  54  55   1
 162  54  56   1
