@<TRIPOS>MOLECULE
*****
 102 204 0 0 0
SMALL
GASTEIGER

@<TRIPOS>ATOM
   1 N   3.3349   5.6392   2.2525   N
   2 O   4.6627   5.5066   1.5674   O
   3 O   2.3346   6.6434   1.7616   O
   4 N   0.9566   2.3226   7.4620   N
   5 O   -0.1741   3.2522   7.1343   O
   6 O   0.8306   1.3632   8.6082   O
   7 N   3.0893   4.9856   3.1346   N
   8 C   1.1031   4.0989   5.3681   C
   9 C   3.3921   5.1751   5.6550   C
  10 C   2.0008   2.7044   3.4369   C
  11 N   3.3467   0.6042   2.2976   N
  12 N   1.8983   2.3435   6.8469   N
  13 C   2.7169   1.1261   4.7666   C
  14 C   4.0933   3.6278   6.9590   C
  15 O   3.5467   1.8990   1.5672   O
  16 O   2.3175   -0.3761   1.8183   O
  17 N   6.4482   -1.6800   7.6930   N
  18 O   5.4865   -2.7897   7.3871   O
  19 O   7.3759   -1.7937   8.8662   O
  20 N   3.1384   0.6795   4.4383   N
  21 N   3.9687   0.3683   3.2049   N
  22 C   4.7238   -1.5630   5.5330   C
  23 C   3.7290   0.7738   5.7065   C
  24 C   5.9063   -0.7922   3.4468   C
  25 O   4.3904   0.7938   5.2565   O
  26 N   6.4760   -0.7639   7.0406   N
  27 C   7.7834   -0.0674   4.9705   C
  28 C   5.2576   1.4711   7.0231   C
  29 O   2.0627   -0.2841   4.8440   O
  30 N   1.4184   3.9208   -1.0684   N
  31 O   0.2324   3.0312   -0.8406   O
  32 O   1.4418   4.8533   -2.2432   O
  33 N   8.4992   5.6567   2.4468   N
  34 O   8.3510   4.3648   1.6992   O
  35 N   3.0061   1.3164   3.5204   N
  36 C   1.2920   2.1982   1.0701   C
  37 C   3.5655   1.0533   1.0511   C
  38 C   2.0233   3.6175   3.0526   C
  39 O   9.5471   6.6469   2.0328   O
  40 N   2.2894   3.8904   -0.3570   N
  41 C   2.9219   5.1404   1.7684   C
  42 C   4.4438   2.5429   -0.2058   C
  43 N   5.0884   7.8818   7.6811   N
  44 O   6.0576   9.0000   7.4354   O
  45 O   4.0934   7.9838   8.7990   O
  46 N   8.4776   5.6392   4.6411   N
  47 O   7.1499   5.5066   5.3263   O
  48 O   9.4780   6.6434   5.1321   O
  49 N   7.8243   5.8830   3.3180   N
  50 C   6.9224   7.7954   5.6091   C
  51 C   7.9225   5.4647   5.8271   C
  52 C   5.9063   7.0255   3.4468   C
  53 N   10.8560   2.3226   -0.5683   N
  54 N   5.1036   6.9695   7.0231   N
  55 C   3.8995   6.2657   4.8936   C
  56 C   6.3564   4.7536   7.0470   C
  57 O   11.9866   3.2522   -0.2406   O
  58 O   10.9820   1.3632   -1.7145   O
  59 N   8.6742   0.6795   2.4553   N
  60 O   7.4222   0.7939   1.6372   O
  61 O   9.7498   -0.2840   2.0496   O
  62 N   10.3941   3.9208   7.9621   N
  63 O   11.5801   3.0312   7.7343   O
  64 O   10.3707   4.8533   9.1368   O
  65 N   8.4658   0.6042   4.5961   N
  66 O   8.2659   1.8990   5.3265   O
  67 N   8.7232   4.9856   3.7590   N
  68 C   10.7094   4.0989   1.5255   C
  69 C   8.4205   5.1751   1.2386   C
  70 C   9.8118   2.7044   3.4568   C
  71 O   9.4951   -0.3761   5.0754   O
  72 N   9.9142   2.3435   0.0467   N
  73 C   9.0957   1.1261   2.1271   C
  74 C   7.7192   3.6278   -0.0654   C
  75 N   5.3643   -1.6800   -0.7993   N
  76 O   6.3261   -2.7897   -0.4934   O
  77 O   4.4366   -1.7937   -1.9725   O
  78 N   3.3134   5.6567   4.4468   N
  79 O   3.4615   4.3648   5.1945   O
  80 O   2.2654   6.6469   4.8608   O
  81 N   8.8065   1.3164   3.3732   N
  82 C   10.5206   2.1982   5.8236   C
  83 C   8.2471   1.0532   5.8426   C
  84 C   9.7892   3.6176   3.8411   C
  85 N   6.7242   7.8818   -0.7875   N
  86 N   9.5232   3.8904   7.2507   N
  87 C   8.8906   5.1404   5.1252   C
  88 C   7.3687   2.5429   7.0994   C
  89 O   5.7550   9.0000   -0.5417   O
  90 O   7.7192   7.9838   -1.9053   O
  91 N   7.8439   0.3683   3.6888   N
  92 C   7.0888   -1.5630   1.3607   C
  93 C   8.0835   0.7738   1.1872   C
  94 N   5.3365   -0.7639   -0.1470   N
  95 C   4.0292   -0.0673   1.9232   C
  96 C   6.5550   1.4711   -0.1295   C
  97 N   3.9882   5.8830   3.5756   N
  98 C   4.8902   7.7954   1.2845   C
  99 C   3.8901   5.4647   1.0666   C
 100 N   6.7090   6.9695   -0.1295   N
 101 C   7.9131   6.2657   2.0000   C
 102 C   5.4562   4.7536   -0.1534   C

@<TRIPOS>BOND
   1   1   7   1
   2   1   2   1
   3   1   3   1
   4   2  55   1
   5   2  79   1
   6   3   8   1
   7   3  41   1
   8   4  12   1
   9   4   5   1
  10   4   6   1
  11   5   8   1
  12   5   9   1
  13   5  10   1
  14   5  14   1
  15   6  13   1
  16   6  23   1
  17   6  28   1
  18   8   9   1
  19   8  10   1
  20   8  36   1
  21   8  38   1
  22   8  41   1
  23   8  55   1
  24   9  14   1
  25   9  55   1
  26   9  45   1
  27  10  13   1
  28  10  36   1
  29  11  21   1
  30  11  15   1
  31  11  16   1
  32  13  22   1
  33  13  23   1
  34  13  36   1
  35  13  16   1
  36  13  29   1
  37  14  28   1
  38  14  56   1
  39  14  45   1
  40  15  25   1
  41  16  22   1
  42  16  95   1
  43  17  26   1
  44  17  18   1
  45  17  19   1
  46  18  22   1
  47  18  23   1
  48  18  24   1
  49  18  28   1
  50  19  27   1
  51  19  83   1
  52  19  88   1
  53  20  35   1
  54  20  25   1
  55  20  29   1
  56  22  23   1
  57  22  24   1
  58  22  95   1
  59  23  28   1
  60  24  27   1
  61  24  92   1
  62  24  95   1
  63  24  76   1
  64  25  95   1
  65  27  82   1
  66  27  83   1
  67  27  92   1
  68  27  60   1
  69  27  71   1
  70  28  56   1
  71  28  88   1
  72  29  36   1
  73  30  40   1
  74  30  31   1
  75  30  32   1
  76  31  36   1
  77  31  37   1
  78  31  38   1
  79  31  42   1
  80  32  41   1
  81  32  99   1
  82  32 102   1
  83  33  49   1
  84  33  34   1
  85  33  39   1
  86  34  47   1
  87  36  37   1
  88  36  38   1
  89  36  95   1
  90  37  42   1
  91  37  95   1
  92  37  77   1
  93  38  41   1
  94  39  50   1
  95  39  87   1
  96  39 101   1
  97  41  98   1
  98  41  99   1
  99  41  80   1
 100  42  96   1
 101  42 102   1
 102  42  77   1
 103  43  54   1
 104  43  44   1
 105  43  45   1
 106  44  50   1
 107  44  52   1
 108  44  56   1
 109  45  55   1
 110  46  67   1
 111  46  47   1
 112  46  48   1
 113  47 101   1
 114  48  68   1
 115  48  87   1
 116  50  51   1
 117  50  52   1
 118  50  56   1
 119  50  87   1
 120  50 101   1
 121  51  56   1
 122  51  87   1
 123  51  64   1
 124  52  55   1
 125  52  98   1
 126  52 101   1
 127  52  89   1
 128  53  72   1
 129  53  57   1
 130  53  58   1
 131  55  98   1
 132  55  80   1
 133  56  88   1
 134  56  64   1
 135  57  68   1
 136  57  69   1
 137  57  70   1
 138  57  74   1
 139  58  73   1
 140  58  93   1
 141  58  96   1
 142  59  81   1
 143  59  60   1
 144  59  61   1
 145  60  66   1
 146  61  73   1
 147  61  82   1
 148  62  86   1
 149  62  63   1
 150  62  64   1
 151  63  82   1
 152  63  83   1
 153  63  84   1
 154  63  88   1
 155  64  87   1
 156  65  91   1
 157  65  66   1
 158  65  71   1
 159  68  69   1
 160  68  70   1
 161  68  82   1
 162  68  84   1
 163  68  87   1
 164  68 101   1
 165  69  74   1
 166  69 101   1
 167  69  90   1
 168  70  73   1
 169  70  82   1
 170  71  73   1
 171  71  92   1
 172  73  82   1
 173  73  92   1
 174  73  93   1
 175  74  96   1
 176  74 102   1
 177  74  90   1
 178  75  94   1
 179  75  76   1
 180  75  77   1
 181  76  92   1
 182  76  93   1
 183  76  96   1
 184  77  95   1
 185  78  97   1
 186  78  79   1
 187  78  80   1
 188  80  98   1
 189  82  83   1
 190  82  84   1
 191  83  88   1
 192  84  87   1
 193  85 100   1
 194  85  89   1
 195  85  90   1
 196  89  98   1
 197  89 102   1
 198  90 101   1
 199  92  93   1
 200  93  96   1
 201  96 102   1
 202  98  99   1
 203  98 102   1
 204  99 102   1
