@<TRIPOS>MOLECULE
*****
 32 24 0 0 0
SMALL
GASTEIGER

@<TRIPOS>ATOM
   1 C    4.7672    3.1062    4.1755 C
   2 N    3.5004    3.1327    4.9406 N
   3 O    2.6964    3.9398    4.5460 O
   4 O    3.4051    2.3769    5.8628 O
   5 C    5.8788    2.0083    4.2280 C
   6 N    5.7948    0.7823    5.0436 N
   7 O    4.9637   -0.0092    4.6565 O
   8 O    6.5205    0.7019    5.9968 O
   9 C    4.8398    3.1221    2.6199 C
  10 N    3.6579    3.1089    1.7262 N
  11 O    2.7944    2.3354    2.0518 O
  12 O    3.6829    3.8417    0.7813 O
  13 C    5.8652    4.2217    4.2249 C
  14 N    5.8989    5.4460    5.0460 N
  15 O    6.7446    6.2451    4.7120 O
  16 O    5.1279    5.5097    5.9703 O
  17 C    5.9338    2.0083    2.6656 C
  18 C    7.0453    3.1062    2.7182 C
  19 N    8.3121    3.1327    1.9531 N
  20 O    9.1161    3.9398    2.3477 O
  21 O    8.4075    2.3769    1.0309 O
  22 C    6.9727    3.1221    4.2738 C
  23 N    8.1547    3.1089    5.1675 N
  24 O    9.0181    2.3354    4.8418 O
  25 O    8.1297    3.8417    6.1123 O
  26 N    6.0178    0.7823    1.8501 N
  27 O    6.8488   -0.0092    2.2371 O
  28 O    5.2921    0.7019    0.8969 O
  29 C    5.9474    4.2217    2.6688 C
  30 N    5.9137    5.4460    1.8476 N
  31 O    5.0680    6.2451    2.1817 O
  32 O    6.6846    5.5097    0.9233 O
@<TRIPOS>BOND
   1   1   2   1
   1   2   3   1
   1   2   4   1
   1   5   6   1
   1   6   7   1
   1   6   8   1
   1   9  10   1
   1  10  11   1
   1  10  12   1
   1  13  14   1
   1  14  15   1
   1  14  16   1
   1  17  26   1
   1  18  19   1
   1  19  20   1
   1  19  21   1
   1  22  23   1
   1  23  24   1
   1  23  25   1
   1  26  27   1
   1  26  28   1
   1  29  30   1
   1  30  31   1
   1  30  32   1
