@<TRIPOS>MOLECULE
*****
 46 87 0 0 0
SMALL
GASTEIGER

@<TRIPOS>ATOM
   1 C   6.2408   -3.1055   3.4206   C
   2 N   5.3369   -0.2919   5.5840   N
   3 N   3.3098   -0.1624   6.2516   N
   4 N   -0.7422   -2.7297   6.9360   N
   5 C   3.8200   -2.0227   6.2639   C
   6 C   0.6665   -0.4408   1.0104   C
   7 C   -1.6493   -1.2102   3.8412   C
   8 C   1.1854   -2.5482   0.0063   C
   9 C   0.7731   -3.9977   0.6867   C
  10 C   0.3928   -6.5091   1.2083   C
  11 C   -1.4160   -5.6947   3.6060   C
  12 C   -1.4256   -3.2944   2.9144   C
  13 C   1.5075   -5.9800   5.0414   C
  14 N   4.9781   -3.6198   -0.1605   N
  15 O   5.0126   -1.3228   6.6242   O
  16 C   3.9432   -0.3161   1.1820   C
  17 C   5.1860   -0.5878   1.9013   C
  18 C   3.2491   1.2036   2.7981   C
  19 C   1.2878   1.4745   3.6543   C
  20 C   -0.2293   -0.4473   5.1677   C
  21 C   2.7407   -3.6712   5.4721   C
  22 C   1.8113   -1.3027   5.5524   C
  23 C   0.5221   -4.5105   4.5483   C
  24 N   3.3462   -4.9565   1.6216   N
  25 C   3.1530   -4.2560   4.5042   C
  26 O   6.3812   0.7489   5.8596   O
  27 O   4.4584   -1.1167   6.1099   O
  28 C   3.2547   0.7767   7.4199   C
  29 O   -2.0625   -2.0970   6.6096   O
  30 O   -0.4867   -3.2638   8.3142   O
  31 O   5.7485   -4.7392   0.4747   O
  32 O   5.0630   -3.3965   -1.6413   O
  33 N   3.6480   -5.7416   0.8745   N
  34 O   4.3630   -5.4395   -0.4090   O
  35 O   4.5333   -6.6957   1.6202   O
  36 O   2.3091   -6.1830   0.3624   O
  37 O   3.9490   2.0580   7.0645   O
  38 O   5.3805   1.7721   6.7198   O
  39 O   5.4956   1.4971   5.2497   O
  40 O   5.3168   0.0289   5.0002   O
  41 O   6.1051   -0.3720   3.7886   O
  42 O   5.4259   -1.5237   3.1088   O
  43 O   5.0585   -1.1315   1.7083   O
  44 O   6.2996   -0.7645   0.9500   O
  45 O   6.1090   -1.0807   -0.5039   O
  46 O   5.1734   -2.2448   -0.6439   O

@<TRIPOS>BOND
   1   1   5   1
   2   1  17   1
   3   1  25   1
   4   1  15   1
   5   1  31   1
   6   1  35   1
   7   2  15   1
   8   2  26   1
   9   3  27   1
  10   3  28   1
  11   4  29   1
  12   4  30   1
  13   5  21   1
  14   5  22   1
  15   5  25   1
  16   5  15   1
  17   5  27   1
  18   5  30   1
  19   6   7   1
  20   6   8   1
  21   6  12   1
  22   6  16   1
  23   6  18   1
  24   6  19   1
  25   7  12   1
  26   7  19   1
  27   7  20   1
  28   7  29   1
  29   8   9   1
  30   8  12   1
  31   8  16   1
  32   8  32   1
  33   9  10   1
  34   9  12   1
  35   9  32   1
  36   9  36   1
  37  10  11   1
  38  10  12   1
  39  10  13   1
  40  10  36   1
  41  11  12   1
  42  11  13   1
  43  11  23   1
  44  11  29   1
  45  12  29   1
  46  13  21   1
  47  13  23   1
  48  13  25   1
  49  13  30   1
  50  13  35   1
  51  14  31   1
  52  14  32   1
  53  15  27   1
  54  16  17   1
  55  16  18   1
  56  16  32   1
  57  17  18   1
  58  17  26   1
  59  17  31   1
  60  18  19   1
  61  18  26   1
  62  18  27   1
  63  19  20   1
  64  20  22   1
  65  20  29   1
  66  21  25   1
  67  21  30   1
  68  22  27   1
  69  22  29   1
  70  23  29   1
  71  24  33   1
  72  25  35   1
  73  28  37   1
  74  31  34   1
  75  32  46   1
  76  33  34   1
  77  33  35   1
  78  33  36   1
  79  37  38   1
  80  38  39   1
  81  39  40   1
  82  40  41   1
  83  41  42   1
  84  42  43   1
  85  43  44   1
  86  44  45   1
  87  45  46   1
