@<TRIPOS>MOLECULE
*****
 23 24 0 0 0
SMALL
GASTEIGER

@<TRIPOS>ATOM
   1 C    3.6434   -2.5436    2.6012 C
   2 C    3.2641   -1.4567    3.6038 C
   3 C    1.7790   -1.1438    3.5110 C
   4 C    0.9698   -2.4107    3.7186 C
   5 C    1.4142   -3.4329    2.6687 C
   6 C    0.7426   -4.7879    2.8235 C
   7 H    4.5596   -2.7418    2.8903 H
   8 H    4.4728   -0.3038    4.0050 H
   9 H    1.9976   -0.1443    5.0196 H
  10 H    0.5356   -2.8481    5.6737 H
  11 H    3.4595   -1.6557    4.5390 H
  12 H    1.3751   -0.8886    2.6033 H
  13 H   -0.0145   -1.9595    3.7647 H
  14 H    1.3317   -3.1140    1.7088 H
  15 H    0.3908   -4.9747    2.1493 H
  16 H   -0.2316   -4.6329    2.7634 H
  17 H    0.9843   -5.1646    3.5244 H
  18 H    3.9517   -2.5443    0.8544 H
  19 O    3.4798   -2.0499    1.3210 O
  20 O    4.0863   -0.3091    3.2988 O
  21 O    1.3925   -0.1359    4.4516 O
  22 O    1.1667   -2.9066    5.0503 O
  23 O    2.8632   -3.7003    2.8168 O
@<TRIPOS>BOND
   1   1   2   1
   1   1   7   1
   1   1  19   1
   1   1  23   1
   1   2   3   1
   1   2  11   1
   1   2  20   1
   1   3   4   1
   1   3  12   1
   1   3  21   1
   1   4   5   1
   1   4  13   1
   1   4  22   1
   1   5   6   1
   1   5  14   1
   1   5  23   1
   1   6  15   1
   1   6  16   1
   1   6  17   1
   1   8  20   1
   1   9  21   1
   1  10  22   1
   1  15  16   1
   1  18  19   1
