@<TRIPOS>MOLECULE
*****
 28 27 0 0 0
SMALL
GASTEIGER

@<TRIPOS>ATOM
   1 N   5.3369   -0.2919   5.5840   N
   2 N   3.3098   -0.1624   6.2516   N
   3 N   -0.7422   -2.7297   6.9360   N
   4 N   4.9781   -3.6198   -0.1605   N
   5 O   5.0126   -1.3228   6.6242   O
   6 O   6.3812   0.7489   5.8596   O
   7 O   4.4584   -1.1167   6.1099   O
   8 N   3.3462   -4.9565   1.6216   N
   9 C   3.2547   0.7767   7.4199   C
  10 O   -2.0625   -2.0970   6.6096   O
  11 O   -0.4867   -3.2638   8.3142   O
  12 O   5.7485   -4.7392   0.4747   O
  13 O   5.0630   -3.3965   -1.6413   O
  14 N   3.6480   -5.7416   0.8745   N
  15 O   4.3630   -5.4395   -0.4090   O
  16 O   4.5333   -6.6957   1.6202   O
  17 O   2.3091   -6.1830   0.3624   O
  18 O   3.8435   2.0310   7.9944   O
  19 O   5.2673   2.1676   7.5424   O
  20 O   5.8580   0.8050   7.3321   O
  21 O   6.2961   0.6648   5.9044   O
  22 O   5.1648   0.1173   5.0857   O
  23 O   5.7160   -0.6865   3.9454   O
  24 O   4.7721   -0.6162   2.7818   O
  25 O   5.5459   -0.7365   1.5024   O
  26 O   6.2719   -2.0489   1.4788   O
  27 O   6.4156   -2.5153   0.0604   O
  28 O   5.0561   -2.6848   -0.5504   O

@<TRIPOS>BOND
   1   1   5   1
   2   1   6   1
   3   2   7   1
   4   2   9   1
   5   3  10   1
   6   3  11   1
   7   4  12   1
   8   4  13   1
   9   5   7   1
  10   8  14   1
  11   9  11   1
  12   9  18   1
  13  12  15   1
  14  13  28   1
  15  14  15   1
  16  14  16   1
  17  14  17   1
  18  18  19   1
  19  19  20   1
  20  20  21   1
  21  21  22   1
  22  22  23   1
  23  23  24   1
  24  24  25   1
  25  25  26   1
  26  26  27   1
  27  27  28   1
