@<TRIPOS>MOLECULE
*****
 27 25 0 0 0
SMALL
GASTEIGER

@<TRIPOS>ATOM
   1 N   5.3369   -0.2919   5.5840   N
   2 N   3.3098   -0.1624   6.2516   N
   3 N   -0.7422   -2.7297   6.9360   N
   4 N   4.9781   -3.6198   -0.1605   N
   5 O   5.0126   -1.3228   6.6242   O
   6 N   3.3462   -4.9565   1.6216   N
   7 O   6.3812   0.7489   5.8596   O
   8 O   4.4584   -1.1167   6.1099   O
   9 C   3.2547   0.7767   7.4199   C
  10 O   -2.0625   -2.0970   6.6096   O
  11 O   -0.4867   -3.2638   8.3142   O
  12 O   5.7485   -4.7392   0.4747   O
  13 O   5.0630   -3.3965   -1.6413   O
  14 N   3.6480   -5.7416   0.8745   N
  15 O   4.3630   -5.4395   -0.4090   O
  16 O   4.5333   -6.6957   1.6202   O
  17 O   2.3091   -6.1830   0.3624   O
  18 O   3.9490   2.0580   7.0645   O
  19 O   5.3805   1.7721   6.7198   O
  20 O   5.4956   1.4971   5.2497   O
  21 O   5.3168   0.0289   5.0002   O
  22 O   6.1051   -0.3720   3.7886   O
  23 O   5.4259   -1.5237   3.1088   O
  24 O   5.0585   -1.1315   1.7083   O
  25 O   6.2996   -0.7645   0.9500   O
  26 O   6.1090   -1.0807   -0.5039   O
  27 O   5.1734   -2.2448   -0.6439   O

@<TRIPOS>BOND
   1   1   5   1
   2   1   7   1
   3   2   8   1
   4   2   9   1
   5   3  10   1
   6   3  11   1
   7   4  12   1
   8   4  13   1
   9   5   8   1
  10   6  14   1
  11   9  18   1
  12  12  15   1
  13  13  27   1
  14  14  15   1
  15  14  16   1
  16  14  17   1
  17  18  19   1
  18  19  20   1
  19  20  21   1
  20  21  22   1
  21  22  23   1
  22  23  24   1
  23  24  25   1
  24  25  26   1
  25  26  27   1
