@<TRIPOS>MOLECULE
*****
 45 82 0 0 0
SMALL
GASTEIGER

@<TRIPOS>ATOM
   1 C   6.2408   -3.1055   3.4206   C
   2 N   5.3369   -0.2919   5.5840   N
   3 N   3.3098   -0.1624   6.2516   N
   4 N   -0.7422   -2.7297   6.9360   N
   5 C   3.8200   -2.0227   6.2639   C
   6 C   0.6665   -0.4408   1.0104   C
   7 C   -1.6493   -1.2102   3.8412   C
   8 C   1.1854   -2.5482   0.0063   C
   9 C   0.7731   -3.9977   0.6867   C
  10 C   0.3928   -6.5091   1.2083   C
  11 C   -1.4160   -5.6947   3.6060   C
  12 C   -1.4256   -3.2944   2.9144   C
  13 C   1.5075   -5.9800   5.0414   C
  14 N   4.9781   -3.6198   -0.1605   N
  15 O   5.0126   -1.3228   6.6242   O
  16 C   3.9432   -0.3161   1.1820   C
  17 C   5.1860   -0.5878   1.9013   C
  18 C   3.2491   1.2036   2.7981   C
  19 C   1.2878   1.4745   3.6543   C
  20 C   -0.2293   -0.4473   5.1677   C
  21 C   2.7407   -3.6712   5.4721   C
  22 O   6.3812   0.7489   5.8596   O
  23 O   4.4584   -1.1167   6.1099   O
  24 N   3.3462   -4.9565   1.6216   N
  25 C   3.1530   -4.2560   4.5042   C
  26 N   3.2547   0.7767   7.4199   N
  27 O   -2.0625   -2.0970   6.6096   O
  28 O   -0.4867   -3.2638   8.3142   O
  29 O   5.7485   -4.7392   0.4747   O
  30 O   5.0630   -3.3965   -1.6413   O
  31 N   3.6480   -5.7416   0.8745   N
  32 O   4.3630   -5.4395   -0.4090   O
  33 O   4.5333   -6.6957   1.6202   O
  34 O   2.3091   -6.1830   0.3624   O
  35 O   4.4489   0.8369   8.3256   O
  36 O   5.4013   1.8837   7.8283   O
  37 O   5.2854   1.9971   6.3370   O
  38 O   4.8901   0.6685   5.7638   O
  39 O   5.4542   0.5330   4.3805   O
  40 O   5.0589   -0.7955   3.8073   O
  41 O   3.7537   -0.6582   3.0809   O
  42 O   3.7010   -1.6490   1.9559   O
  43 O   5.0899   -1.9075   1.4518   O
  44 O   5.0372   -2.8983   0.3268   O
  45 O   4.8805   -2.1691   -0.9746   O

@<TRIPOS>BOND
   1   1   5   1
   2   1  17   1
   3   1  25   1
   4   1  15   1
   5   1  29   1
   6   1  33   1
   7   2  15   1
   8   2  22   1
   9   3  23   1
  10   3  26   1
  11   4  27   1
  12   4  28   1
  13   5  21   1
  14   5  25   1
  15   5  15   1
  16   5  23   1
  17   5  28   1
  18   6   7   1
  19   6   8   1
  20   6  12   1
  21   6  16   1
  22   6  18   1
  23   6  19   1
  24   7  12   1
  25   7  19   1
  26   7  20   1
  27   7  27   1
  28   8   9   1
  29   8  12   1
  30   8  16   1
  31   8  30   1
  32   9  10   1
  33   9  12   1
  34   9  30   1
  35   9  34   1
  36  10  11   1
  37  10  12   1
  38  10  13   1
  39  10  34   1
  40  11  12   1
  41  11  13   1
  42  11  27   1
  43  12  27   1
  44  13  21   1
  45  13  25   1
  46  13  28   1
  47  13  33   1
  48  14  29   1
  49  14  30   1
  50  15  23   1
  51  16  17   1
  52  16  18   1
  53  16  30   1
  54  17  18   1
  55  17  22   1
  56  17  29   1
  57  18  19   1
  58  18  22   1
  59  18  23   1
  60  19  20   1
  61  20  27   1
  62  21  25   1
  63  21  28   1
  64  24  31   1
  65  25  33   1
  66  26  28   1
  67  26  35   1
  68  29  32   1
  69  30  45   1
  70  31  32   1
  71  31  33   1
  72  31  34   1
  73  35  36   1
  74  36  37   1
  75  37  38   1
  76  38  39   1
  77  39  40   1
  78  40  41   1
  79  41  42   1
  80  42  43   1
  81  43  44   1
  82  44  45   1
