@<TRIPOS>MOLECULE
*****
 47 90 0 0 0
SMALL
GASTEIGER

@<TRIPOS>ATOM
   1 N   0.4113   7.4073   0.5588   N
   2 C   0.2118   7.5520   3.6668   C
   3 O   4.3772   9.1210   6.6031   O
   4 C   0.2306   5.4707   2.2011   C
   5 N   2.3848   6.3114   -0.3746   N
   6 C   4.4612   5.1923   1.6640   C
   7 C   2.0431   4.4642   1.3432   C
   8 O   4.0157   11.8543   6.1770   O
   9 C   2.2741   12.9191   1.6051   C
  10 N   4.9575   13.2868   2.8124   N
  11 C   2.1904   13.9716   5.1597   C
  12 C   0.6555   8.9654   4.6181   C
  13 N   2.7504   6.2166   7.2410   N
  14 C   -0.3992   4.6803   4.2347   C
  15 C   1.3269   4.8690   2.3080   C
  16 O   6.2822   8.6223   2.2025   O
  17 O   5.9397   11.3923   1.8054   O
  18 S   4.7761   9.7010   5.3929   S
  19 C   2.4104   8.2549   7.1577   C
  20 C   1.3216   10.4482   3.8337   C
  21 S   4.5996   11.0404   5.1989   S
  22 C   1.8816   12.3243   6.5293   C
  23 C   3.4477   3.5136   4.0180   C
  24 S   5.7325   9.4335   3.2024   S
  25 O   4.8931   12.9208   3.7773   O
  26 C   5.1623   7.5403   0.5687   C
  27 S   5.5626   10.7868   3.0100   S
  28 C   2.2909   10.2111   1.6228   C
  29 C   4.7453   11.6377   0.0116   C
  30 S   5.0220   11.5449   4.0016   S
  31 S   1.7363   11.0597   2.6127   S
  32 C   5.9732   6.1742   2.3138   C
  33 C   4.6233   6.7072   6.6547   C
  34 O   1.6044   12.4364   2.3949   O
  35 S   5.3351   8.9175   4.4270   S
  36 O   5.5045   7.5545   4.6981   O
  37 N   -0.0179   7.6320   -0.4565   N
  38 O   -1.3287   8.3516   -0.5742   O
  39 O   0.7423   7.1998   -1.7060   O
  40 N   2.0562   6.4802   -1.4373   N
  41 O   2.9103   5.9977   -2.5721   O
  42 N   5.9983   13.6837   2.6544   N
  43 O   6.8223   14.4218   3.6674   O
  44 O   6.8212   12.4892   2.2725   O
  45 O   5.7039   14.8022   1.6993   O
  46 O   2.7004   7.3888   8.1757   O
  47 O   3.4025   4.9378   7.6760   O

@<TRIPOS>BOND
   1   1  37   1
   2   2   4   1
   3   2  12   1
   4   2  14   1
   5   2  20   1
   6   2  38   1
   7   3  18   1
   8   3  19   1
   9   3  33   1
  10   4   7   1
  11   4  14   1
  12   4  15   1
  13   4  38   1
  14   5  40   1
  15   6   7   1
  16   6  23   1
  17   6  26   1
  18   6  32   1
  19   6  41   1
  20   7  15   1
  21   7  23   1
  22   7  39   1
  23   7  41   1
  24   8  21   1
  25   8  11   1
  26   8  22   1
  27   9  11   1
  28   9  28   1
  29   9  29   1
  30   9  34   1
  31   9  45   1
  32  10  42   1
  33  11  20   1
  34  11  22   1
  35  11  34   1
  36  11  43   1
  37  12  14   1
  38  12  19   1
  39  12  20   1
  40  12  22   1
  41  13  46   1
  42  13  47   1
  43  14  15   1
  44  14  19   1
  45  14  23   1
  46  14  47   1
  47  15  23   1
  48  16  24   1
  49  16  26   1
  50  16  32   1
  51  17  27   1
  52  17  29   1
  53  18  21   1
  54  18  35   1
  55  19  22   1
  56  19  33   1
  57  19  46   1
  58  20  22   1
  59  20  31   1
  60  20  38   1
  61  21  30   1
  62  23  32   1
  63  23  33   1
  64  23  47   1
  65  24  27   1
  66  24  35   1
  67  25  30   1
  68  25  43   1
  69  26  29   1
  70  26  32   1
  71  26  41   1
  72  27  30   1
  73  28  29   1
  74  28  31   1
  75  28  38   1
  76  28  39   1
  77  29  44   1
  78  29  39   1
  79  31  34   1
  80  32  33   1
  81  33  36   1
  82  33  47   1
  83  35  36   1
  84  37  38   1
  85  37  39   1
  86  39  40   1
  87  40  41   1
  88  42  43   1
  89  42  44   1
  90  42  45   1
