@<TRIPOS>MOLECULE
*****
 46 89 0 0 0
SMALL
GASTEIGER

@<TRIPOS>ATOM
   1 N   0.4113   7.4073   0.5588   N
   2 C   0.2118   7.5520   3.6668   C
   3 O   4.3772   9.1210   6.6031   O
   4 C   0.2306   5.4707   2.2011   C
   5 C   2.3848   6.3114   -0.3746   C
   6 N   4.4612   5.1923   1.6640   N
   7 C   2.0431   4.4642   1.3432   C
   8 O   4.0157   11.8543   6.1770   O
   9 C   2.2741   12.9191   1.6051   C
  10 C   4.9575   13.2868   2.8124   C
  11 N   2.1904   13.9716   5.1597   N
  12 N   0.6555   8.9654   4.6181   N
  13 C   2.7504   6.2166   7.2410   C
  14 C   -0.3992   4.6803   4.2347   C
  15 C   1.3269   4.8690   2.3080   C
  16 O   6.2822   8.6223   2.2025   O
  17 O   5.9397   11.3923   1.8054   O
  18 S   4.7761   9.7010   5.3929   S
  19 C   2.4104   8.2549   7.1577   C
  20 C   1.3216   10.4482   3.8337   C
  21 S   4.5996   11.0404   5.1989   S
  22 C   1.8816   12.3243   6.5293   C
  23 C   3.4477   3.5136   4.0180   C
  24 S   5.7325   9.4335   3.2024   S
  25 O   4.8931   12.9208   3.7773   O
  26 C   5.1623   7.5403   0.5687   C
  27 S   5.5626   10.7868   3.0100   S
  28 C   2.2909   10.2111   1.6228   C
  29 C   4.7453   11.6377   0.0116   C
  30 S   5.0220   11.5449   4.0016   S
  31 S   1.7363   11.0597   2.6127   S
  32 C   5.9732   6.1742   2.3138   C
  33 C   4.6233   6.7072   6.6547   C
  34 O   1.6044   12.4364   2.3949   O
  35 S   5.3351   8.9175   4.4270   S
  36 O   5.5045   7.5545   4.6981   O
  37 N   -0.0179   7.6320   -0.4565   N
  38 O   -1.3287   8.3516   -0.5742   O
  39 O   0.7207   7.2119   -1.6927   O
  40 N   5.4303   4.6616   1.8755   N
  41 O   6.2844   4.1791   0.7407   O
  42 O   5.8685   4.4365   3.2923   O
  43 O   2.0062   15.4589   5.0960   O
  44 O   1.7647   13.2149   6.3829   O
  45 O   -0.0369   9.4694   3.3866   O
  46 O   0.8131   9.8622   5.8101   O

@<TRIPOS>BOND
   1   1  37   1
   2   2   4   1
   3   2  14   1
   4   2  20   1
   5   2  38   1
   6   2  45   1
   7   3  18   1
   8   3  19   1
   9   3  33   1
  10   4   7   1
  11   4  14   1
  12   4  15   1
  13   4  38   1
  14   5   7   1
  15   5  26   1
  16   5  28   1
  17   5  29   1
  18   5  39   1
  19   5  41   1
  20   6  40   1
  21   7  15   1
  22   7  23   1
  23   7  39   1
  24   7  41   1
  25   8  21   1
  26   8  22   1
  27   8  44   1
  28   9  10   1
  29   9  28   1
  30   9  29   1
  31   9  34   1
  32   9  43   1
  33  10  29   1
  34  10  25   1
  35  10  43   1
  36  11  43   1
  37  11  44   1
  38  12  45   1
  39  12  46   1
  40  13  14   1
  41  13  19   1
  42  13  23   1
  43  13  33   1
  44  14  15   1
  45  14  19   1
  46  14  23   1
  47  14  45   1
  48  15  23   1
  49  16  24   1
  50  16  26   1
  51  16  32   1
  52  17  27   1
  53  17  29   1
  54  18  21   1
  55  18  35   1
  56  19  22   1
  57  19  33   1
  58  19  46   1
  59  20  22   1
  60  20  31   1
  61  20  38   1
  62  20  44   1
  63  20  45   1
  64  21  30   1
  65  22  44   1
  66  22  46   1
  67  23  32   1
  68  23  33   1
  69  23  42   1
  70  24  27   1
  71  24  35   1
  72  25  30   1
  73  26  29   1
  74  26  32   1
  75  26  41   1
  76  27  30   1
  77  28  29   1
  78  28  31   1
  79  28  38   1
  80  31  34   1
  81  32  33   1
  82  32  42   1
  83  33  36   1
  84  34  44   1
  85  35  36   1
  86  37  38   1
  87  37  39   1
  88  40  41   1
  89  40  42   1
