@<TRIPOS>MOLECULE
*****
 48 91 0 0 0
SMALL
GASTEIGER

@<TRIPOS>ATOM
   1 C   0.4113   7.4073   0.5588   C
   2 N   0.2118   7.5520   3.6668   N
   3 O   4.3772   9.1210   6.6031   O
   4 C   0.2306   5.4707   2.2011   C
   5 N   2.3848   6.3114   -0.3746   N
   6 C   4.4612   5.1923   1.6640   C
   7 C   2.0431   4.4642   1.3432   C
   8 O   4.0157   11.8543   6.1770   O
   9 C   2.2741   12.9191   1.6051   C
  10 N   4.9575   13.2868   2.8124   N
  11 C   2.1904   13.9716   5.1597   C
  12 C   0.6555   8.9654   4.6181   C
  13 N   2.7504   6.2166   7.2410   N
  14 C   -0.3992   4.6803   4.2347   C
  15 C   1.3269   4.8690   2.3080   C
  16 O   6.2822   8.6223   2.2025   O
  17 O   5.9397   11.3923   1.8054   O
  18 S   4.7761   9.7010   5.3929   S
  19 C   2.4104   8.2549   7.1577   C
  20 C   1.3216   10.4482   3.8337   C
  21 S   4.5996   11.0404   5.1989   S
  22 C   1.8816   12.3243   6.5293   C
  23 C   3.4477   3.5136   4.0180   C
  24 S   5.7325   9.4335   3.2024   S
  25 O   4.8931   12.9208   3.7773   O
  26 C   5.1623   7.5403   0.5687   C
  27 S   5.5626   10.7868   3.0100   S
  28 C   2.2909   10.2111   1.6228   C
  29 C   4.7453   11.6377   0.0116   C
  30 S   5.0220   11.5449   4.0016   S
  31 S   1.7363   11.0597   2.6127   S
  32 C   5.9732   6.1742   2.3138   C
  33 C   4.6233   6.7072   6.6547   C
  34 O   1.6044   12.4364   2.3949   O
  35 S   5.3351   8.9175   4.4270   S
  36 O   5.5045   7.5545   4.6981   O
  37 N   -0.3421   7.8670   4.5939   N
  38 O   0.2302   7.5675   5.9477   O
  39 O   -1.6529   8.5867   4.4762   O
  40 N   2.0562   6.4802   -1.4373   N
  41 O   0.7640   7.1878   -1.7193   O
  42 O   2.9103   5.9977   -2.5721   O
  43 N   5.9983   13.6837   2.6544   N
  44 O   6.8223   14.4218   3.6674   O
  45 O   6.8212   12.4892   2.2725   O
  46 O   5.7039   14.8022   1.6993   O
  47 O   2.7004   7.3888   8.1757   O
  48 O   3.4025   4.9378   7.6760   O

@<TRIPOS>BOND
   1   1   4   1
   2   1   7   1
   3   1  20   1
   4   1  28   1
   5   1  39   1
   6   1  41   1
   7   2  37   1
   8   3  18   1
   9   3  19   1
  10   3  33   1
  11   4   7   1
  12   4  14   1
  13   4  15   1
  14   4  38   1
  15   5  40   1
  16   6   7   1
  17   6  23   1
  18   6  26   1
  19   6  32   1
  20   6  42   1
  21   7  15   1
  22   7  23   1
  23   7  42   1
  24   8  21   1
  25   8  11   1
  26   8  22   1
  27   9  11   1
  28   9  28   1
  29   9  29   1
  30   9  34   1
  31   9  46   1
  32  10  43   1
  33  11  20   1
  34  11  22   1
  35  11  34   1
  36  11  44   1
  37  12  14   1
  38  12  19   1
  39  12  20   1
  40  12  22   1
  41  12  38   1
  42  13  47   1
  43  13  48   1
  44  14  15   1
  45  14  19   1
  46  14  23   1
  47  14  38   1
  48  14  48   1
  49  15  23   1
  50  16  24   1
  51  16  26   1
  52  16  32   1
  53  17  27   1
  54  17  29   1
  55  18  21   1
  56  18  35   1
  57  19  22   1
  58  19  33   1
  59  19  47   1
  60  20  22   1
  61  20  31   1
  62  20  39   1
  63  21  30   1
  64  23  32   1
  65  23  33   1
  66  23  48   1
  67  24  27   1
  68  24  35   1
  69  25  30   1
  70  25  44   1
  71  26  29   1
  72  26  32   1
  73  26  42   1
  74  27  30   1
  75  28  29   1
  76  28  31   1
  77  28  41   1
  78  29  41   1
  79  29  45   1
  80  31  34   1
  81  32  33   1
  82  33  36   1
  83  33  48   1
  84  35  36   1
  85  37  38   1
  86  37  39   1
  87  40  41   1
  88  40  42   1
  89  43  44   1
  90  43  45   1
  91  43  46   1
