@<TRIPOS>MOLECULE
*****
 24 24 0 0 0
SMALL
GASTEIGER

@<TRIPOS>ATOM
   1 O    1.0981    7.0479    2.1834 O
   2 O    2.9105    6.0413    1.3255 O
   3 O    3.2923    12.6517    3.0651 O
   4 H    2.9223    13.0949    3.7685 H
   5 N    1.6290    6.4155    4.6899 N
   6 H    1.2973    7.2843    4.6654 H
   7 H    2.0279    6.3448    5.5973 H
   8 H    0.9491    5.8338    4.5373 H
   9 C    2.1911    6.4478    2.2815 C
  10 C    3.1354    9.3740    4.7289 C
  11 H    2.8814    8.9819    5.5799 H
  12 C    2.9606    10.7443    4.5163 C
  13 H    2.5810    11.3002    5.2246 H
  14 C    2.7182    6.1864    3.6945 C
  15 H    2.9770    5.2384    3.8092 H
  16 C    4.0844    9.1339    2.5436 C
  17 H    4.4586    8.5807    1.8580 H
  18 C    3.9267    10.4989    2.3164 C
  19 H    4.1992    10.8779    1.5493 H
  20 C    3.3791    11.3023    3.3071 C
  21 C    3.9404    7.0812    4.0020 C
  22 H    4.6635    6.7586    3.4015 H
  23 H    4.1787    6.9507    4.9275 H
  24 C    3.7034    8.5567    3.7580 C
@<TRIPOS>BOND
   1   1   9   1
   1   2   9   1
   1   3   4   1
   1   3  20   1
   1   5   6   1
   1   5   7   1
   1   5   8   1
   1   5  14   1
   1   9  14   1
   1  10  11   1
   1  10  12   1
   1  10  24   1
   1  12  13   1
   1  12  20   1
   1  14  15   1
   1  14  21   1
   1  16  17   1
   1  16  18   1
   1  16  24   1
   1  18  19   1
   1  18  20   1
   1  21  22   1
   1  21  23   1
   1  21  24   1
