@<TRIPOS>MOLECULE
*****
 36 79 0 0 0
SMALL
GASTEIGER

@<TRIPOS>ATOM
   1 C   0.4113   7.4073   0.5588   C
   2 C   0.2118   7.5520   3.6668   C
   3 O   4.3772   9.1210   6.6031   O
   4 C   0.2306   5.4707   2.2011   C
   5 C   2.3848   6.3114   -0.3746   C
   6 C   4.4612   5.1923   1.6640   C
   7 C   2.0431   4.4642   1.3432   C
   8 O   4.0157   11.8543   6.1770   O
   9 C   2.2741   12.9191   1.6051   C
  10 C   4.9575   13.2868   2.8124   C
  11 C   2.1904   13.9716   5.1597   C
  12 C   0.6555   8.9654   4.6181   C
  13 C   2.7504   6.2166   7.2410   C
  14 C   -0.3992   4.6803   4.2347   C
  15 C   1.3269   4.8690   2.3080   C
  16 O   6.2822   8.6223   2.2025   O
  17 O   5.9397   11.3923   1.8054   O
  18 S   4.7761   9.7010   5.3929   S
  19 C   2.4104   8.2549   7.1577   C
  20 O   1.3216   10.4482   3.8337   O
  21 S   4.5996   11.0404   5.1989   S
  22 C   1.8816   12.3243   6.5293   C
  23 C   3.4477   3.5136   4.0180   C
  24 S   5.7325   9.4335   3.2024   S
  25 O   4.8931   12.9208   3.7773   O
  26 C   5.1623   7.5403   0.5687   C
  27 S   5.5626   10.7868   3.0100   S
  28 O   2.2909   10.2111   1.6228   O
  29 C   4.7453   11.6377   0.0116   C
  30 S   5.0220   11.5449   4.0016   S
  31 S   1.7363   11.0597   2.6127   S
  32 C   5.9732   6.1742   2.3138   C
  33 C   4.6233   6.7072   6.6547   C
  34 O   1.6044   12.4364   2.3949   O
  35 S   5.3351   8.9175   4.4270   S
  36 O   5.5045   7.5545   4.6981   O

@<TRIPOS>BOND
   1   1   2   1
   2   1   4   1
   3   1   5   1
   4   1   7   1
   5   1  20   1
   6   1  28   1
   7   2   4   1
   8   2  12   1
   9   2  14   1
  10   2  20   1
  11   3  18   1
  12   3  19   1
  13   3  33   1
  14   4   7   1
  15   4  14   1
  16   4  15   1
  17   5   6   1
  18   5   7   1
  19   5  26   1
  20   5  28   1
  21   5  29   1
  22   6   7   1
  23   6  23   1
  24   6  26   1
  25   6  32   1
  26   7  15   1
  27   7  23   1
  28   8  21   1
  29   8  11   1
  30   8  22   1
  31   9  10   1
  32   9  11   1
  33   9  28   1
  34   9  29   1
  35   9  34   1
  36  10  11   1
  37  10  29   1
  38  10  25   1
  39  11  20   1
  40  11  22   1
  41  11  34   1
  42  12  14   1
  43  12  19   1
  44  12  20   1
  45  12  22   1
  46  13  14   1
  47  13  19   1
  48  13  23   1
  49  13  33   1
  50  14  15   1
  51  14  19   1
  52  14  23   1
  53  15  23   1
  54  16  24   1
  55  16  26   1
  56  16  32   1
  57  17  27   1
  58  17  29   1
  59  18  21   1
  60  18  35   1
  61  19  22   1
  62  19  33   1
  63  20  22   1
  64  20  31   1
  65  21  30   1
  66  23  32   1
  67  23  33   1
  68  24  27   1
  69  24  35   1
  70  25  30   1
  71  26  29   1
  72  26  32   1
  73  27  30   1
  74  28  29   1
  75  28  31   1
  76  31  34   1
  77  32  33   1
  78  33  36   1
  79  35  36   1
