@<TRIPOS>MOLECULE
*****
 35 0 0 0 0
SMALL
GASTEIGER

@<TRIPOS>ATOM
   1 C   0.4113   7.4073   0.5588   C
   2 C   0.2118   7.5520   3.6668   C
   3 C   1.9655   8.6250   2.1657   C
   4 C   0.2306   5.4707   2.2011   C
   5 C   2.3848   6.3114   -0.3746   C
   6 C   4.4612   5.1923   1.6640   C
   7 C   2.0431   4.4642   1.3432   C
   8 C   3.7779   7.6185   1.3078   C
   9 C   2.2741   12.9191   1.6051   C
  10 C   4.9575   13.2868   2.8124   C
  11 C   2.1904   13.9716   5.1597   C
  12 C   0.6555   8.9654   4.6181   C
  13 C   2.7504   6.2166   7.2410   C
  14 C   -0.3992   4.6803   4.2347   C
  15 C   1.3269   4.8690   2.3080   C
  16 C   3.0552   8.0266   2.2550   C
  17 C   1.4946   9.0470   4.0649   C
  18 C   4.7761   9.7010   5.3929   C
  19 C   2.4104   8.2549   7.1577   C
  20 C   1.3216   10.4482   3.8337   C
  21 C   4.5996   11.0404   5.1989   C
  22 C   1.8816   12.3243   6.5293   C
  23 C   3.4477   3.5136   4.0180   C
  24 C   5.7325   9.4335   3.2024   C
  25 C   2.4364   8.8344   1.8847   C
  26 C   5.1623   7.5403   0.5687   C
  27 C   5.5626   10.7868   3.0100   C
  28 C   2.2909   10.2111   1.6228   C
  29 C   4.7453   11.6377   0.0116   C
  30 C   5.0220   11.5449   4.0016   C
  31 C   1.7363   11.0597   2.6127   C
  32 C   5.9732   6.1742   2.3138   C
  33 C   4.6233   6.7072   6.6547   C
  34 C   2.0718   8.1959   3.0890   C
  35 C   5.3351   8.9175   4.4270   C

@<TRIPOS>BOND
