@<TRIPOS>MOLECULE
*****
 27 53 0 0 0
SMALL
GASTEIGER

@<TRIPOS>ATOM
   1 C   2.0051   4.2507   3.6694   C
   2 N   2.9414   2.0566   1.9012   N
   3 N   6.0668   4.6376   2.8819   N
   4 C   5.0923   6.1954   0.3632   C
   5 C   4.1925   6.3542   2.7392   C
   6 C   5.3594   3.6782   0.6326   C
   7 N   4.5099   6.4340   0.3708   N
   8 C   3.4495   4.5506   -1.6321   C
   9 C   3.1300   5.8118   2.8394   C
  10 C   4.2645   3.1459   0.7025   C
  11 C   5.3723   3.1382   4.3039   C
  12 C   0.6354   6.1112   2.3048   C
  13 C   1.2332   7.3318   -0.9142   C
  14 C   0.8501   2.0769   2.4938   C
  15 C   -0.1524   4.1780   -1.3966   C
  16 C   3.8028   2.0391   -1.1668   C
  17 N   2.6655   1.0896   1.3967   N
  18 O   3.0418   0.6755   0.0050   O
  19 O   3.2138   0.0138   2.2867   O
  20 O   1.1958   1.3177   1.2025   O
  21 N   6.8736   4.4010   3.6294   N
  22 O   6.6100   3.4184   4.7316   O
  23 O   8.2129   5.0681   3.5238   O
  24 N   5.4295   6.9705   0.7342   N
  25 O   5.7705   7.1517   2.1836   O
  26 O   6.5929   6.2424   0.1290   O
  27 O   5.1184   8.3817   0.3320   O

@<TRIPOS>BOND
   1   1   9   1
   2   1  11   1
   3   1  12   1
   4   1  14   1
   5   2  17   1
   6   3  21   1
   7   4   5   1
   8   4   6   1
   9   4   8   1
  10   4  23   1
  11   4  26   1
  12   5   9   1
  13   5  11   1
  14   5  12   1
  15   5  13   1
  16   5  22   1
  17   5  25   1
  18   6   8   1
  19   6  10   1
  20   6  11   1
  21   6  16   1
  22   6  22   1
  23   7  24   1
  24   8  13   1
  25   8  15   1
  26   8  16   1
  27   8  26   1
  28   9  11   1
  29   9  12   1
  30  10  11   1
  31  10  16   1
  32  10  18   1
  33  11  14   1
  34  11  19   1
  35  11  22   1
  36  12  13   1
  37  12  14   1
  38  12  15   1
  39  13  15   1
  40  13  27   1
  41  14  15   1
  42  14  16   1
  43  14  20   1
  44  15  16   1
  45  16  18   1
  46  17  18   1
  47  17  19   1
  48  17  20   1
  49  21  22   1
  50  21  23   1
  51  24  25   1
  52  24  26   1
  53  24  27   1
