@<TRIPOS>MOLECULE
*****
 16 42 0 0 0
SMALL
GASTEIGER

@<TRIPOS>ATOM
   1 C   2.0051   4.2507   3.6694   C
   2 C   2.9414   2.0566   1.9012   C
   3 C   6.0668   4.6376   2.8819   C
   4 C   5.0923   6.1954   0.3632   C
   5 C   4.1925   6.3542   2.7392   C
   6 C   5.3594   3.6782   0.6326   C
   7 C   4.5099   6.4340   0.3708   C
   8 C   3.4495   4.5506   -1.6321   C
   9 C   3.1300   5.8118   2.8394   C
  10 C   4.2645   3.1459   0.7025   C
  11 C   5.3723   3.1382   4.3039   C
  12 C   0.6354   6.1112   2.3048   C
  13 C   1.2332   7.3318   -0.9142   C
  14 C   0.8501   2.0769   2.4938   C
  15 C   -0.1524   4.1780   -1.3966   C
  16 C   3.8028   2.0391   -1.1668   C

@<TRIPOS>BOND
   1   1   9   1
   2   1  11   1
   3   1  12   1
   4   1  14   1
   5   2  10   1
   6   2  11   1
   7   2  14   1
   8   2  16   1
   9   3   4   1
  10   3   5   1
  11   3   6   1
  12   3  11   1
  13   4   5   1
  14   4   6   1
  15   4   7   1
  16   4   8   1
  17   5   7   1
  18   5   9   1
  19   5  11   1
  20   5  12   1
  21   5  13   1
  22   6   8   1
  23   6  10   1
  24   6  11   1
  25   6  16   1
  26   7   8   1
  27   7  13   1
  28   8  13   1
  29   8  15   1
  30   8  16   1
  31   9  11   1
  32   9  12   1
  33  10  11   1
  34  10  16   1
  35  11  14   1
  36  12  13   1
  37  12  14   1
  38  12  15   1
  39  13  15   1
  40  14  15   1
  41  14  16   1
  42  15  16   1
