@<TRIPOS>MOLECULE
*****
 12 11 0 0 0
SMALL
GASTEIGER

@<TRIPOS>ATOM
   1 O    3.3827    3.6038    2.7083 O
   2 O    4.7759    5.0162    1.6859 O
   3 O    3.0385    5.5754   -0.2105 O
   4 C    3.6972    4.4789    1.7709 C
   5 C    2.5334    4.7459    0.8327 C
   6 C    1.9170    3.4665    0.2869 C
   7 H    3.9909    3.4615    3.1961 H
   8 H    1.8720    5.2217    1.3457 H
   9 H    2.4758    6.1229   -0.4299 H
  10 H    1.5316    2.9646    1.0841 H
  11 H    1.1967    3.7141   -0.2991 H
  12 H    2.5801    2.9646   -0.2243 H
@<TRIPOS>BOND
   1   1   4   1
   1   1   7   1
   1   2   4   1
   1   3   5   1
   1   3   9   1
   1   4   5   1
   1   5   6   1
   1   5   8   1
   1   6  10   1
   1   6  11   1
   1   6  12   1
