@<TRIPOS>MOLECULE
*****
 42 120 0 0 0
SMALL
GASTEIGER

@<TRIPOS>ATOM
   1 C   6.6460   8.7295   9.1840   C
   2 C   6.0185   6.6499   11.1643   C
   3 C   8.1081   8.6376   11.7323   C
   4 C   10.1536   2.4729   7.3310   C
   5 C   7.1460   2.9010   8.0319   C
   6 C   8.6070   4.3170   6.5020   C
   7 C   9.0981   2.6268   9.6424   C
   8 C   10.1988   5.7700   7.0376   C
   9 C   10.6357   4.2273   10.2608   C
  10 C   12.2949   3.4103   7.6354   C
  11 C   8.8875   5.3978   7.0398   C
  12 C   8.7902   5.8346   11.3320   C
  13 C   9.6142   7.8091   8.1083   C
  14 C   10.1371   6.3218   11.3447   C
  15 C   10.0556   9.0512   8.6019   C
  16 C   10.5804   7.5769   11.8439   C
  17 C   8.5172   10.0570   11.3065   C
  18 C   11.3743   9.3768   8.5363   C
  19 C   11.8934   7.9263   11.7900   C
  20 C   12.4466   11.0776   11.1158   C
  21 C   12.3220   8.5194   8.0033   C
  22 C   12.8099   7.0424   11.2499   C
  23 C   15.2007   8.4890   9.5540   C
  24 C   11.9271   7.2971   7.5070   C
  25 C   12.4153   5.8206   10.7537   C
  26 C   14.0098   4.8404   8.0719   C
  27 C   10.5788   6.9810   7.5662   C
  28 C   11.0723   5.4352   10.7798   C
  29 C   6.7264   2.6652   9.0993   C
  30 C   5.9584   5.3464   11.3756   C
  31 C   8.1972   3.0458   11.9953   C
  32 C   5.4250   2.2105   9.1966   C
  33 C   4.6436   4.9221   11.4319   C
  34 C   4.3117   1.7696   12.2386   C
  35 C   4.4897   2.6768   8.3030   C
  36 C   3.7062   5.3878   10.5384   C
  37 C   1.5135   3.1631   9.5693   C
  38 C   4.8772   3.5719   7.3538   C
  39 C   4.0450   6.2828   9.5715   C
  40 C   2.6116   5.8280   6.6685   C
  41 C   6.1755   4.0433   7.2654   C
  42 C   6.4583   7.2069   6.4866   C

@<TRIPOS>BOND
   1   1   2   1
   2   1   3   1
   3   1  15   1
   4   1  17   1
   5   1  39   1
   6   1  40   1
   7   1  42   1
   8   2   3   1
   9   2  30   1
  10   2  33   1
  11   2  36   1
  12   2  39   1
  13   3  12   1
  14   3  16   1
  15   3  17   1
  16   3  30   1
  17   4   5   1
  18   4   6   1
  19   4   7   1
  20   4  10   1
  21   5   6   1
  22   5   7   1
  23   5  29   1
  24   5  32   1
  25   5  35   1
  26   5  38   1
  27   5  41   1
  28   6   8   1
  29   6  10   1
  30   6  11   1
  31   6  41   1
  32   6  42   1
  33   7   9   1
  34   7  10   1
  35   7  29   1
  36   7  31   1
  37   8  10   1
  38   8  11   1
  39   8  24   1
  40   8  27   1
  41   8  42   1
  42   9  10   1
  43   9  25   1
  44   9  28   1
  45   9  31   1
  46  10  24   1
  47  10  25   1
  48  10  26   1
  49  11  42   1
  50  12  14   1
  51  12  16   1
  52  12  30   1
  53  12  31   1
  54  13  15   1
  55  13  27   1
  56  13  42   1
  57  14  16   1
  58  14  22   1
  59  14  25   1
  60  14  28   1
  61  14  31   1
  62  15  17   1
  63  15  18   1
  64  15  20   1
  65  15  27   1
  66  15  42   1
  67  16  17   1
  68  16  19   1
  69  16  22   1
  70  17  19   1
  71  17  20   1
  72  18  20   1
  73  18  21   1
  74  18  27   1
  75  19  20   1
  76  19  22   1
  77  19  23   1
  78  20  21   1
  79  20  23   1
  80  21  23   1
  81  21  24   1
  82  21  27   1
  83  22  23   1
  84  22  25   1
  85  23  24   1
  86  23  25   1
  87  23  26   1
  88  24  26   1
  89  24  27   1
  90  25  26   1
  91  25  28   1
  92  27  42   1
  93  28  31   1
  94  29  31   1
  95  29  32   1
  96  30  31   1
  97  30  33   1
  98  30  34   1
  99  31  32   1
 100  31  34   1
 101  32  34   1
 102  32  35   1
 103  32  37   1
 104  33  34   1
 105  33  36   1
 106  34  36   1
 107  34  37   1
 108  35  37   1
 109  35  38   1
 110  35  40   1
 111  36  37   1
 112  36  39   1
 113  37  39   1
 114  37  40   1
 115  38  40   1
 116  38  41   1
 117  39  40   1
 118  40  41   1
 119  40  42   1
 120  41  42   1
