@<TRIPOS>MOLECULE
*****
 61 109 0 0 0
SMALL
GASTEIGER

@<TRIPOS>ATOM
   1 C   6.6460   8.7295   9.1840   C
   2 C   6.0185   6.6499   11.1643   C
   3 C   8.1081   8.6376   11.7323   C
   4 N   10.1536   2.4729   7.3310   N
   5 C   7.1460   2.9010   8.0319   C
   6 C   8.6070   4.3170   6.5020   C
   7 C   9.0981   2.6268   9.6424   C
   8 S   10.1988   5.7700   7.0376   S
   9 C   10.6357   4.2273   10.2608   C
  10 N   12.2949   3.4103   7.6354   N
  11 O   11.1568   4.9073   6.4915   O
  12 C   8.8875   5.3978   7.0398   C
  13 O   8.2719   7.4140   8.1546   O
  14 O   9.1697   9.9767   9.1664   O
  15 C   8.7902   5.8346   11.3320   C
  16 O   9.6931   8.5011   12.4083   O
  17 S   9.6142   7.8091   8.1083   S
  18 S   10.1371   6.3218   11.3447   S
  19 S   10.0556   9.0512   8.6019   S
  20 S   10.5804   7.5769   11.8439   S
  21 C   8.5172   10.0570   11.3065   C
  22 S   11.3743   9.3768   8.5363   S
  23 S   11.8934   7.9263   11.7900   S
  24 C   12.4466   11.0776   11.1158   C
  25 S   12.3220   8.5194   8.0033   S
  26 S   12.8099   7.0424   11.2499   S
  27 C   15.2007   8.4890   9.5540   C
  28 S   11.9271   7.2971   7.5070   S
  29 S   12.4153   5.8206   10.7537   S
  30 C   14.0098   4.8404   8.0719   C
  31 S   10.5788   6.9810   7.5662   S
  32 S   11.0723   5.4352   10.7798   S
  33 O   11.7663   10.6267   9.0303   O
  34 O   12.2946   9.1741   12.2820   O
  35 C   6.7264   2.6652   9.0993   C
  36 C   5.9584   5.3464   11.3756   C
  37 C   8.1972   3.0458   11.9953   C
  38 S   5.4250   2.2105   9.1966   S
  39 S   4.6436   4.9221   11.4319   S
  40 C   4.3117   1.7696   12.2386   C
  41 S   4.4897   2.6768   8.3030   S
  42 S   3.7062   5.3878   10.5384   S
  43 C   1.5135   3.1631   9.5693   C
  44 S   4.8772   3.5719   7.3538   S
  45 C   4.0450   6.2828   9.5715   C
  46 C   2.6116   5.8280   6.6685   C
  47 C   6.1755   4.0433   7.2654   C
  48 O   13.6725   8.8866   7.9663   O
  49 C   6.4583   7.2069   6.4866   C
  50 O   14.1649   7.3917   11.2044   O
  51 O   12.8619   6.4086   6.9622   O
  52 O   13.3859   4.9648   10.2194   O
  53 O   5.0593   1.2904   10.1864   O
  54 O   4.2538   4.0027   12.4131   O
  55 O   3.1590   2.2455   8.3590   O
  56 O   2.3812   4.9420   10.6145   O
  57 O   3.9134   4.0204   6.4427   O
  58 N   10.9667   1.8485   6.8678   N
  59 O   10.6287   0.5402   6.2165   O
  60 O   12.1533   2.2027   6.9763   O
  61 O   13.7309   3.8437   7.6479   O

@<TRIPOS>BOND
   1   1   2   1
   2   1   3   1
   3   1  21   1
   4   1  45   1
   5   1  46   1
   6   1  49   1
   7   1  13   1
   8   2   3   1
   9   2  36   1
  10   2  45   1
  11   3  15   1
  12   3  21   1
  13   3  36   1
  14   3  16   1
  15   4  58   1
  16   5   6   1
  17   5   7   1
  18   5  35   1
  19   5  47   1
  20   5  59   1
  21   6  12   1
  22   6  47   1
  23   6  49   1
  24   6  59   1
  25   6  60   1
  26   7   9   1
  27   7  35   1
  28   7  37   1
  29   7  59   1
  30   7  60   1
  31   8  12   1
  32   8  31   1
  33   8  11   1
  34   9  32   1
  35   9  37   1
  36   9  60   1
  37  10  61   1
  38  10  60   1
  39  11  60   1
  40  12  49   1
  41  13  17   1
  42  13  49   1
  43  14  19   1
  44  14  21   1
  45  15  18   1
  46  15  36   1
  47  15  37   1
  48  16  20   1
  49  16  21   1
  50  17  19   1
  51  17  31   1
  52  18  20   1
  53  18  32   1
  54  19  22   1
  55  20  23   1
  56  21  24   1
  57  22  25   1
  58  22  33   1
  59  23  26   1
  60  23  34   1
  61  24  27   1
  62  24  33   1
  63  24  34   1
  64  25  28   1
  65  25  48   1
  66  26  29   1
  67  26  50   1
  68  27  30   1
  69  27  48   1
  70  27  50   1
  71  28  31   1
  72  28  51   1
  73  29  32   1
  74  29  52   1
  75  30  51   1
  76  30  52   1
  77  30  61   1
  78  35  37   1
  79  35  38   1
  80  36  37   1
  81  36  39   1
  82  36  40   1
  83  37  40   1
  84  38  41   1
  85  38  53   1
  86  39  42   1
  87  39  54   1
  88  40  43   1
  89  40  53   1
  90  40  54   1
  91  41  44   1
  92  41  55   1
  93  42  45   1
  94  42  56   1
  95  43  45   1
  96  43  46   1
  97  43  55   1
  98  43  56   1
  99  44  47   1
 100  44  57   1
 101  45  46   1
 102  46  47   1
 103  46  49   1
 104  46  57   1
 105  47  49   1
 106  51  61   1
 107  52  61   1
 108  58  59   1
 109  58  60   1
