@<TRIPOS>MOLECULE
*****
 28 30 0 0 0
SMALL
GASTEIGER

@<TRIPOS>ATOM
   1 Cl    7.3346    7.6452    10.4451 Cl
   2 O    8.8526    3.4719    8.0722 O
   3 N    10.4173    4.9986    8.6492 N
   4 H    11.0244    4.4851    8.3214 H
   5 C    9.1320    4.5536    8.6107 C
   6 C    8.1269    5.4172    9.2306 C
   7 C    8.5142    6.6092    9.7308 C
   8 C    9.8756    7.0655    9.7265 C
   9 C    10.3180    8.3141    10.2229 C
  10 H    9.7044    8.9080    10.5921 H
  11 C    11.6339    8.6516    10.1632 C
  12 H    11.9108    9.4781    10.4877 H
  13 C    12.5660    7.7809    9.6266 C
  14 H    13.4630    8.0220    9.6019 H
  15 C    12.1712    6.5589    9.1304 C
  16 H    12.7976    5.9734    8.7697 H
  17 C    10.8255    6.2081    9.1730 C
  18 C    6.7184    4.9288    9.2776 C
  19 C    6.3424    4.0058    10.2375 C
  20 H    6.9742    3.6788    10.8363 H
  21 C    5.0343    3.5663    10.3142 C
  22 H    4.7881    2.9542    10.9698 H
  23 C    4.0980    4.0323    9.4207 C
  24 H    3.2171    3.7360    9.4713 H
  25 C    4.4611    4.9274    8.4627 C
  26 H    3.8312    5.2341    7.8516 H
  27 C    5.7663    5.3822    8.3966 C
  28 H    6.0021    6.0041    7.7457 H
@<TRIPOS>BOND
   1   1   7   1
   1   2   5   1
   1   3   4   1
   1   3   5   1
   1   3  17   1
   1   5   6   1
   1   6   7   1
   1   6  18   1
   1   7   8   1
   1   8   9   1
   1   8  17   1
   1   9  10   1
   1   9  11   1
   1  11  12   1
   1  11  13   1
   1  13  14   1
   1  13  15   1
   1  15  16   1
   1  15  17   1
   1  18  19   1
   1  18  27   1
   1  19  20   1
   1  19  21   1
   1  21  22   1
   1  21  23   1
   1  23  24   1
   1  23  25   1
   1  25  26   1
   1  25  27   1
   1  27  28   1
