@<TRIPOS>MOLECULE
*****
 49 0 0 0 0
SMALL
GASTEIGER

@<TRIPOS>ATOM
   1 C   6.6460   8.7295   9.1840   C
   2 C   6.0185   6.6499   11.1643   C
   3 C   8.1081   8.6376   11.7323   C
   4 C   10.1536   2.4729   7.3310   C
   5 C   7.1460   2.9010   8.0319   C
   6 C   8.6070   4.3170   6.5020   C
   7 C   9.0981   2.6268   9.6424   C
   8 C   10.1988   5.7700   7.0376   C
   9 C   10.6357   4.2273   10.2608   C
  10 C   12.2949   3.4103   7.6354   C
  11 C   9.3765   3.7093   10.1815   C
  12 C   8.8875   5.3978   7.0398   C
  13 C   8.4473   4.6449   10.8246   C
  14 C   7.8065   6.1895   7.6366   C
  15 C   8.7902   5.8346   11.3320   C
  16 C   8.2382   7.3838   8.1296   C
  17 C   9.6142   7.8091   8.1083   C
  18 C   10.1371   6.3218   11.3447   C
  19 C   10.0556   9.0512   8.6019   C
  20 C   10.5804   7.5769   11.8439   C
  21 C   8.5172   10.0570   11.3065   C
  22 C   11.3743   9.3768   8.5363   C
  23 C   11.8934   7.9263   11.7900   C
  24 C   12.4466   11.0776   11.1158   C
  25 C   12.3220   8.5194   8.0033   C
  26 C   12.8099   7.0424   11.2499   C
  27 C   15.2007   8.4890   9.5540   C
  28 C   11.9271   7.2971   7.5070   C
  29 C   12.4153   5.8206   10.7537   C
  30 C   14.0098   4.8404   8.0719   C
  31 C   10.5788   6.9810   7.5662   C
  32 C   11.0723   5.4352   10.7798   C
  33 C   7.1376   3.5923   8.1471   C
  34 C   6.2993   6.2653   10.4081   C
  35 C   6.7264   2.6652   9.0993   C
  36 C   5.9584   5.3464   11.3756   C
  37 C   8.1972   3.0458   11.9953   C
  38 C   5.4250   2.2105   9.1966   C
  39 C   4.6436   4.9221   11.4319   C
  40 C   4.3117   1.7696   12.2386   C
  41 C   4.4897   2.6768   8.3030   C
  42 C   3.7062   5.3878   10.5384   C
  43 C   1.5135   3.1631   9.5693   C
  44 C   4.8772   3.5719   7.3538   C
  45 C   4.0450   6.2828   9.5715   C
  46 C   2.6116   5.8280   6.6685   C
  47 C   6.1755   4.0433   7.2654   C
  48 C   5.3570   6.7212   9.5279   C
  49 C   6.4583   7.2069   6.4866   C

@<TRIPOS>BOND
