@<TRIPOS>MOLECULE
*****
 64 153 0 0 0
SMALL
GASTEIGER

@<TRIPOS>ATOM
   1 C   2.4699   -6.2340   -4.0990   C
   2 N   -0.3874   -4.1265   -6.2098   N
   3 C   1.9697   -0.0446   -1.1300   C
   4 O   -1.1794   -4.5586   -7.4081   O
   5 O   0.1587   -2.7313   -6.1372   O
   6 C   1.5970   -11.8982   -2.1147   C
   7 C   3.7944   -8.8663   -1.1517   C
   8 C   0.9525   -11.0745   -1.0636   C
   9 N   4.2831   -3.4800   0.8215   N
  10 O   5.7184   -3.0455   0.8562   O
  11 C   4.3233   -7.2787   -3.4023   C
  12 C   0.5906   -7.6623   -5.8677   C
  13 C   4.2840   -4.6220   -2.5659   C
  14 C   0.9631   -2.8501   -5.4414   C
  15 C   4.1890   -4.7593   -0.9299   C
  16 C   2.3429   -4.5924   2.9522   C
  17 C   -1.7361   -4.3441   1.3015   C
  18 C   3.6727   -1.4000   1.3694   C
  19 C   -0.9519   -0.7600   0.9474   C
  20 C   -1.7353   -6.0990   -2.5598   C
  21 C   -1.6660   -2.1519   0.1530   C
  22 C   -0.8153   -1.8712   -4.1354   C
  23 C   -1.7352   -6.8713   -4.2685   C
  24 C   -1.9226   -7.8530   -0.0749   C
  25 C   -1.1942   -11.3233   -1.7514   C
  26 C   3.2402   -10.5922   -6.0241   C
  27 C   -0.8263   -11.2177   -3.6994   C
  28 C   4.3554   0.1532   -2.7686   C
  29 C   2.2333   -2.8927   -5.1183   C
  30 C   3.3390   -11.1729   1.2542   C
  31 C   2.3378   -9.8336   2.3834   C
  32 C   -1.6805   -8.6548   0.4033   C
  33 C   4.1064   -6.4058   0.6097   C
  34 C   0.4790   -6.2241   3.0819   C
  35 C   -1.8682   -5.9800   -0.8478   C
  36 C   4.1562   -6.4621   -1.6788   C
  37 N   -0.1245   -4.8743   -5.4114   N
  38 O   3.5848   -2.9728   2.0483   O
  39 C   -1.1735   -5.5989   -3.2082   C
  40 C   1.7659   -6.5425   -5.0600   C
  41 N   3.7680   -3.0729   -0.0920   N
  42 C   3.2769   -3.4958   -2.9591   C
  43 O   4.2326   -4.9785   0.7777   O
  44 N   -0.9329   -1.1491   -0.2645   N
  45 C   -0.6701   0.7823   -2.6978   C
  46 C   -1.0377   -1.7363   -2.7392   C
  47 C   0.9333   0.5160   -0.7387   C
  48 N   -0.1986   -0.3873   -5.1887   N
  49 C   0.1582   1.3253   -2.8266   C
  50 C   2.2117   1.2750   -4.9291   C
  51 N   4.1732   -12.1378   -3.9737   N
  52 C   4.5503   -11.8645   -0.8910   C
  53 C   2.5048   -12.7203   -2.1415   C
  54 C   4.8867   -10.0726   -2.6675   C
  55 N   -1.4833   -1.4859   0.6570   N
  56 O   -2.6594   -0.6981   1.1531   O
  57 O   -0.9293   -2.6036   1.4900   O
  58 N   -0.9495   -0.8097   -5.9121   N
  59 O   -1.2716   -1.3989   -4.5707   O
  60 O   -1.9457   0.1385   -6.5108   O
  61 O   -0.7077   -1.5134   -7.2145   O
  62 N   4.4716   -12.6011   -4.9545   N
  63 O   5.6021   -13.5857   -5.0054   O
  64 O   3.7704   -12.1987   -6.2179   O

@<TRIPOS>BOND
   1   1  11   1
   2   1  29   1
   3   1  40   1
   4   2  37   1
   5   2   4   1
   6   2   5   1
   7   3  18   1
   8   3  28   1
   9   3  47   1
  10   4  12   1
  11   4  23   1
  12   4  40   1
  13   5  14   1
  14   5  22   1
  15   5  61   1
  16   6   8   1
  17   6  25   1
  18   6  27   1
  19   6  53   1
  20   7  30   1
  21   7  33   1
  22   7  36   1
  23   7  52   1
  24   7  54   1
  25   8  25   1
  26   8  30   1
  27   8  31   1
  28   8  32   1
  29   8  53   1
  30   9  41   1
  31   9  10   1
  32   9  38   1
  33   9  43   1
  34  10  28   1
  35  11  13   1
  36  11  26   1
  37  11  29   1
  38  11  36   1
  39  11  40   1
  40  11  54   1
  41  12  23   1
  42  12  26   1
  43  12  27   1
  44  12  40   1
  45  13  15   1
  46  13  28   1
  47  13  29   1
  48  13  36   1
  49  13  42   1
  50  13  43   1
  51  14  29   1
  52  14  40   1
  53  14  50   1
  54  14  61   1
  55  15  33   1
  56  15  36   1
  57  15  43   1
  58  16  17   1
  59  16  18   1
  60  16  19   1
  61  16  31   1
  62  16  33   1
  63  16  34   1
  64  17  19   1
  65  17  21   1
  66  17  24   1
  67  17  32   1
  68  17  34   1
  69  17  35   1
  70  18  19   1
  71  18  28   1
  72  18  33   1
  73  18  47   1
  74  18  38   1
  75  19  21   1
  76  19  45   1
  77  19  47   1
  78  19  56   1
  79  20  21   1
  80  20  23   1
  81  20  24   1
  82  20  35   1
  83  20  39   1
  84  20  46   1
  85  21  35   1
  86  21  46   1
  87  21  57   1
  88  22  23   1
  89  22  39   1
  90  22  45   1
  91  22  46   1
  92  22  59   1
  93  23  24   1
  94  23  25   1
  95  23  27   1
  96  23  39   1
  97  24  25   1
  98  24  32   1
  99  24  35   1
 100  25  27   1
 101  25  32   1
 102  25  53   1
 103  26  27   1
 104  26  40   1
 105  26  54   1
 106  26  64   1
 107  27  53   1
 108  27  64   1
 109  28  29   1
 110  28  42   1
 111  28  47   1
 112  28  49   1
 113  28  50   1
 114  29  40   1
 115  29  42   1
 116  29  50   1
 117  30  31   1
 118  30  33   1
 119  30  52   1
 120  30  53   1
 121  31  32   1
 122  31  33   1
 123  31  34   1
 124  32  34   1
 125  33  36   1
 126  33  43   1
 127  36  54   1
 128  39  46   1
 129  44  55   1
 130  45  46   1
 131  45  47   1
 132  45  49   1
 133  45  56   1
 134  45  59   1
 135  46  57   1
 136  47  49   1
 137  48  58   1
 138  49  50   1
 139  49  59   1
 140  50  59   1
 141  51  62   1
 142  52  53   1
 143  52  54   1
 144  52  63   1
 145  53  64   1
 146  54  63   1
 147  55  56   1
 148  55  57   1
 149  58  59   1
 150  58  60   1
 151  58  61   1
 152  62  63   1
 153  62  64   1
