@<TRIPOS>MOLECULE
*****
 47 136 0 0 0
SMALL
GASTEIGER

@<TRIPOS>ATOM
   1 C   2.4699   -6.2340   -4.0990   C
   2 C   1.9697   -0.0446   -1.1300   C
   3 C   1.5970   -11.8982   -2.1147   C
   4 C   3.7944   -8.8663   -1.1517   C
   5 C   0.9525   -11.0745   -1.0636   C
   6 C   4.3233   -7.2787   -3.4023   C
   7 C   0.5906   -7.6623   -5.8677   C
   8 C   4.2840   -4.6220   -2.5659   C
   9 C   0.9631   -2.8501   -5.4414   C
  10 C   4.1890   -4.7593   -0.9299   C
  11 C   2.3429   -4.5924   2.9522   C
  12 C   -1.7361   -4.3441   1.3015   C
  13 C   3.6727   -1.4000   1.3694   C
  14 C   -0.9519   -0.7600   0.9474   C
  15 C   -1.7353   -6.0990   -2.5598   C
  16 C   -1.6660   -2.1519   0.1530   C
  17 C   -0.8153   -1.8712   -4.1354   C
  18 C   -1.7352   -6.8713   -4.2685   C
  19 C   -1.9226   -7.8530   -0.0749   C
  20 C   -1.1942   -11.3233   -1.7514   C
  21 C   3.2402   -10.5922   -6.0241   C
  22 C   -0.8263   -11.2177   -3.6994   C
  23 C   4.3554   0.1532   -2.7686   C
  24 C   2.2333   -2.8927   -5.1183   C
  25 C   3.3390   -11.1729   1.2542   C
  26 C   2.3378   -9.8336   2.3834   C
  27 C   -1.6805   -8.6548   0.4033   C
  28 C   4.1064   -6.4058   0.6097   C
  29 C   0.4790   -6.2241   3.0819   C
  30 C   -1.8682   -5.9800   -0.8478   C
  31 C   4.1562   -6.4621   -1.6788   C
  32 C   -0.1245   -4.8743   -5.4114   C
  33 C   -1.1735   -5.5989   -3.2082   C
  34 C   1.7659   -6.5425   -5.0600   C
  35 C   3.7680   -3.0729   -0.0920   C
  36 C   3.2769   -3.4958   -2.9591   C
  37 C   -0.9329   -1.1491   -0.2645   C
  38 C   -0.6701   0.7823   -2.6978   C
  39 C   -1.0377   -1.7363   -2.7392   C
  40 C   0.9333   0.5160   -0.7387   C
  41 C   -0.1986   -0.3873   -5.1887   C
  42 C   0.1582   1.3253   -2.8266   C
  43 C   2.2117   1.2750   -4.9291   C
  44 C   4.1732   -12.1378   -3.9737   C
  45 C   4.5503   -11.8645   -0.8910   C
  46 C   2.5048   -12.7203   -2.1415   C
  47 C   4.8867   -10.0726   -2.6675   C

@<TRIPOS>BOND
   1   1   6   1
   2   1  24   1
   3   1  34   1
   4   2  13   1
   5   2  23   1
   6   2  40   1
   7   3   5   1
   8   3  20   1
   9   3  22   1
  10   3  46   1
  11   4  25   1
  12   4  28   1
  13   4  31   1
  14   4  45   1
  15   4  47   1
  16   5  20   1
  17   5  25   1
  18   5  26   1
  19   5  27   1
  20   5  46   1
  21   6   8   1
  22   6  21   1
  23   6  24   1
  24   6  31   1
  25   6  34   1
  26   6  47   1
  27   7  18   1
  28   7  21   1
  29   7  22   1
  30   7  32   1
  31   7  34   1
  32   8  10   1
  33   8  23   1
  34   8  24   1
  35   8  31   1
  36   8  35   1
  37   8  36   1
  38   9  24   1
  39   9  32   1
  40   9  34   1
  41   9  41   1
  42   9  43   1
  43  10  28   1
  44  10  31   1
  45  10  35   1
  46  11  12   1
  47  11  13   1
  48  11  14   1
  49  11  26   1
  50  11  28   1
  51  11  29   1
  52  12  14   1
  53  12  16   1
  54  12  19   1
  55  12  27   1
  56  12  29   1
  57  12  30   1
  58  13  14   1
  59  13  23   1
  60  13  28   1
  61  13  35   1
  62  13  40   1
  63  14  16   1
  64  14  37   1
  65  14  38   1
  66  14  40   1
  67  15  16   1
  68  15  18   1
  69  15  19   1
  70  15  30   1
  71  15  33   1
  72  15  39   1
  73  16  30   1
  74  16  37   1
  75  16  39   1
  76  17  18   1
  77  17  32   1
  78  17  33   1
  79  17  38   1
  80  17  39   1
  81  17  41   1
  82  18  19   1
  83  18  20   1
  84  18  22   1
  85  18  32   1
  86  18  33   1
  87  19  20   1
  88  19  27   1
  89  19  30   1
  90  20  22   1
  91  20  27   1
  92  20  46   1
  93  21  22   1
  94  21  34   1
  95  21  44   1
  96  21  47   1
  97  22  44   1
  98  22  46   1
  99  23  24   1
 100  23  35   1
 101  23  36   1
 102  23  40   1
 103  23  42   1
 104  23  43   1
 105  24  34   1
 106  24  36   1
 107  24  43   1
 108  25  26   1
 109  25  28   1
 110  25  45   1
 111  25  46   1
 112  26  27   1
 113  26  28   1
 114  26  29   1
 115  27  29   1
 116  28  31   1
 117  28  35   1
 118  31  47   1
 119  32  34   1
 120  32  41   1
 121  33  39   1
 122  37  38   1
 123  37  39   1
 124  38  39   1
 125  38  40   1
 126  38  41   1
 127  38  42   1
 128  40  42   1
 129  41  42   1
 130  41  43   1
 131  42  43   1
 132  44  45   1
 133  44  46   1
 134  44  47   1
 135  45  46   1
 136  45  47   1
