@<TRIPOS>MOLECULE
*****
 52 55 0 0 0
SMALL
GASTEIGER

@<TRIPOS>ATOM
   1 C    1.7891   -8.6319   -3.5230 C
   2 C    1.0261   -8.1731   -2.2706 C
   3 C    0.9909   -5.7396   -3.2000 C
   4 C    1.5221   -4.3159   -3.0825 C
   5 C    0.9458   -3.7294   -1.7818 C
   6 C    1.3444   -4.6257   -0.6056 C
   7 C    0.9397   -3.8051    0.6266 C
   8 C    1.2098   -2.3365    0.1923 C
   9 C    1.5271   -2.3649   -1.3194 C
  10 C   -0.5743   -3.6136   -1.9273 C
  11 C   -0.4689   -8.4545   -2.3944 C
  12 C    2.0472   -10.1478   -3.5845 C
  13 C    0.9568   -1.1848   -2.0861 C
  14 C    1.6616   -0.7710   -3.3627 C
  15 C    2.7841   -10.5687   -2.3663 C
  16 C    2.3735   -9.9704   -1.1077 C
  17 C    1.5391   -8.9133   -1.0337 C
  18 C    1.0753   -8.4049    0.2810 C
  19 C    1.3624   -6.8984    0.4585 C
  20 C    0.8504   -6.0707   -0.7169 C
  21 C    1.3644   -6.6643   -2.0503 C
  22 H    2.7369   -8.1258   -3.4779 H
  23 H    1.3594   -8.2843   -4.3637 H
  24 H    2.5251   -4.4271   -2.8949 H
  25 H    1.3182   -3.7815   -3.9426 H
  26 H    2.4026   -4.6754   -0.7262 H
  27 H    1.4498   -4.0913    1.4720 H
  28 H   -0.0231   -3.9990    0.8695 H
  29 H    2.1365   -1.9842    0.6352 H
  30 H    0.4478   -1.7808    0.4585 H
  31 H   -0.9930   -4.5099   -2.1554 H
  32 H   -0.9558   -3.1028   -1.2003 H
  33 H   -0.6616   -2.9821   -2.7275 H
  34 H   -0.9096   -7.9035   -3.0467 H
  35 H   -0.9889   -8.2393   -1.5646 H
  36 H   -0.7630   -9.6180   -2.1336 H
  37 H    2.4598   -10.3015   -4.4283 H
  38 H    0.8594   -10.5900   -3.6320 H
  39 H    2.6887   -0.4186   -3.1362 H
  40 H    1.8674   -1.5348   -3.9948 H
  41 H    2.7229   -10.4056   -0.2530 H
  42 H    1.5371   -8.9275    1.0501 H
  43 H    0.1104   -8.4924    0.3238 H
  44 H    2.3373   -6.7234    0.5122 H
  45 H    1.0371   -6.6501    1.4245 H
  46 H   -0.0713   -6.0399   -0.7613 H
  47 H    2.3765   -6.5910   -1.9156 H
  48 O    0.2962   -6.0707   -4.1341 O
  49 O    2.9437   -2.4217   -1.5537 O
  50 O   -0.0522   -0.6101   -1.7390 O
  51 O    1.0030    0.2885   -4.0313 O
  52 O    3.6957   -11.3965   -2.4045 O
@<TRIPOS>BOND
   1   1   2   1
   1   1  12   1
   1   1  22   1
   1   1  23   1
   1   2  11   1
   1   2  17   1
   1   2  21   1
   1   3   4   1
   1   3  21   1
   1   3  48   1
   1   4   5   1
   1   4  24   1
   1   4  25   1
   1   5   6   1
   1   5   9   1
   1   5  10   1
   1   6   7   1
   1   6  20   1
   1   6  26   1
   1   7   8   1
   1   7  27   1
   1   7  28   1
   1   8   9   1
   1   8  29   1
   1   8  30   1
   1   9  13   1
   1   9  49   1
   1  10  31   1
   1  10  32   1
   1  10  33   1
   1  11  34   1
   1  11  35   1
   1  11  36   1
   1  12  15   1
   1  12  37   1
   1  12  38   1
   1  13  14   1
   1  13  50   1
   1  14  39   1
   1  14  40   1
   1  14  51   1
   1  15  16   1
   1  15  52   1
   1  16  17   1
   1  16  41   1
   1  17  18   1
   1  18  19   1
   1  18  42   1
   1  18  43   1
   1  19  20   1
   1  19  44   1
   1  19  45   1
   1  20  21   1
   1  20  46   1
   1  21  47   1
