@<TRIPOS>MOLECULE
*****
 34 96 0 0 0
SMALL
GASTEIGER

@<TRIPOS>ATOM
   1 C   -1.0805   -3.9962   -5.3234   C
   2 C   0.9442   -4.1700   -8.2950   C
   3 C   -1.4685   -5.3248   -16.2744   C
   4 C   2.2161   -5.6481   -4.7118   C
   5 C   1.6598   -7.9339   -16.4179   C
   6 C   -3.8549   -7.4878   -11.1521   C
   7 C   -4.5084   -5.3430   -14.3290   C
   8 C   -2.6382   -2.1737   -14.1192   C
   9 C   -2.8538   -8.7298   -15.2525   C
  10 C   1.8848   -8.6789   -13.5600   C
  11 C   -2.6675   -9.6250   -12.0313   C
  12 C   -4.6051   -3.6505   -12.8181   C
  13 C   0.2360   -3.1872   -11.8063   C
  14 C   -4.1003   -6.1301   -8.7809   C
  15 C   -3.0062   -1.6734   -9.3057   C
  16 C   1.0827   -3.0819   -10.2955   C
  17 C   0.0027   -7.1714   -8.7806   C
  18 C   -2.0798   -1.1744   -7.8088   C
  19 C   -3.4690   -5.3520   -6.2527   C
  20 C   0.9940   -6.3854   -13.5198   C
  21 C   -1.3734   -6.6287   -16.2210   C
  22 C   -2.3412   -5.0863   -15.5098   C
  23 C   -1.3156   -6.1010   -5.9100   C
  24 C   0.6993   -6.1139   -8.0953   C
  25 C   0.2258   -1.4714   -6.7252   C
  26 C   2.0808   -3.5843   -5.3782   C
  27 C   1.6417   -3.2543   -7.8638   C
  28 C   -0.3734   -3.1234   -4.8835   C
  29 C   1.6814   -5.1089   -16.7348   C
  30 C   0.1553   -2.6377   -15.6018   C
  31 C   1.6320   -4.2754   -14.3301   C
  32 C   -0.7924   -4.5594   -16.9762   C
  33 C   1.1213   -5.4612   -11.8160   C
  34 C   0.0701   -6.9811   -9.8061   C

@<TRIPOS>BOND
   1   1   4   1
   2   1  18   1
   3   1  19   1
   4   1  23   1
   5   1  28   1
   6   2  24   1
   7   2  27   1
   8   2  33   1
   9   3  21   1
  10   3  22   1
  11   3  32   1
  12   4  17   1
  13   4  23   1
  14   4  24   1
  15   4  26   1
  16   4  27   1
  17   4  28   1
  18   5   9   1
  19   5  10   1
  20   5  21   1
  21   5  29   1
  22   5  31   1
  23   5  32   1
  24   6   7   1
  25   6   9   1
  26   6  11   1
  27   6  12   1
  28   6  14   1
  29   7   8   1
  30   7   9   1
  31   7  12   1
  32   7  22   1
  33   8  12   1
  34   8  13   1
  35   8  15   1
  36   8  22   1
  37   8  30   1
  38   8  32   1
  39   9  10   1
  40   9  11   1
  41   9  21   1
  42   9  22   1
  43  10  11   1
  44  10  20   1
  45  10  31   1
  46  10  33   1
  47  10  34   1
  48  11  14   1
  49  11  17   1
  50  11  34   1
  51  12  14   1
  52  12  15   1
  53  13  15   1
  54  13  16   1
  55  13  30   1
  56  13  31   1
  57  14  15   1
  58  14  17   1
  59  14  19   1
  60  14  23   1
  61  15  16   1
  62  15  18   1
  63  15  19   1
  64  16  18   1
  65  16  25   1
  66  16  27   1
  67  16  31   1
  68  16  33   1
  69  17  23   1
  70  17  24   1
  71  17  34   1
  72  18  19   1
  73  18  25   1
  74  18  28   1
  75  19  23   1
  76  20  31   1
  77  20  33   1
  78  21  22   1
  79  21  32   1
  80  22  32   1
  81  24  27   1
  82  24  33   1
  83  24  34   1
  84  25  26   1
  85  25  27   1
  86  25  28   1
  87  26  27   1
  88  26  28   1
  89  27  33   1
  90  29  30   1
  91  29  31   1
  92  29  32   1
  93  30  31   1
  94  30  32   1
  95  31  33   1
  96  33  34   1
