@<TRIPOS>MOLECULE
*****
 32 33 0 0 0
SMALL
GASTEIGER

@<TRIPOS>ATOM
   1 C   -0.0681   -4.0831   -6.8092 C
   2 C   -1.9145   -5.7639   -11.9455 C
   3 C   -0.2725   -5.1729   -14.9377 C
   4 C   -1.9465   -5.8291   -13.4627 C
   5 C   -1.1792   -7.0732   -13.9719 C
   6 C   -0.5817   -7.7894   -12.7788 C
   7 C   -2.1698   -4.3718   -11.4237 C
   8 C   -2.3532   -4.2083   -9.8940 C
   9 C   -1.0639   -4.3418   -9.0901 C
  10 C   -1.2840   -3.8771   -7.6403 C
  11 H    0.8910   -5.4441   -5.9128 H
  12 H    0.4717   -7.0173   -15.4238 H
  13 H   -2.5681   -6.3446   -11.6783 H
  14 H   -2.8301   -5.6614   -13.7615 H
  15 H   -1.7819   -3.7571   -14.1192 H
  16 H   -1.7295   -7.6176   -14.3927 H
  17 H    0.2621   -8.0937   -13.0460 H
  18 H   -1.3627   -8.4767   -12.4990 H
  19 H   -3.0922   -4.0986   -11.9519 H
  20 H   -1.3627   -3.9744   -11.5521 H
  21 H   -2.9874   -4.9059   -9.4899 H
  22 H   -2.5681   -3.3741   -9.7004 H
  23 H   -0.3145   -3.9019   -9.5110 H
  24 H   -0.6289   -5.4959   -8.9639 H
  25 H   -1.5723   -2.8980   -7.7014 H
  26 H   -2.1488   -4.4608   -7.0911 H
  27 N   -0.1897   -6.5070   -14.8704 N
  28 N   -1.2547   -4.7320   -14.1192 N
  29 O    0.1782   -5.3344   -6.5588 O
  30 O    0.6342   -3.1888   -6.3736 O
  31 O    0.4198   -4.4174   -15.6531 O
  32 S   -0.3014   -6.5195   -11.5058 S
@<TRIPOS>BOND
   1   1  10   1
   1   1  29   1
   1   1  30   1
   1   2   4   1
   1   2   7   1
   1   2  13   1
   1   2  32   1
   1   3  27   1
   1   3  28   1
   1   3  31   1
   1   4   5   1
   1   4  14   1
   1   4  28   1
   1   5   6   1
   1   5  16   1
   1   5  27   1
   1   6  17   1
   1   6  18   1
   1   6  32   1
   1   7   8   1
   1   7  19   1
   1   7  20   1
   1   8   9   1
   1   8  21   1
   1   8  22   1
   1   9  10   1
   1   9  23   1
   1   9  24   1
   1  10  25   1
   1  10  26   1
   1  11  29   1
   1  12  27   1
   1  15  28   1
