@<TRIPOS>MOLECULE
*****
 45 107 0 0 0
SMALL
GASTEIGER

@<TRIPOS>ATOM
   1 C   -1.0805   -3.9962   -5.3234   C
   2 C   0.9442   -4.1700   -8.2950   C
   3 S   -1.4685   -5.3248   -16.2744   S
   4 O   -0.7670   -4.3637   -17.0122   O
   5 N   2.2161   -5.6481   -4.7118   N
   6 N   1.6598   -7.9339   -16.4179   N
   7 C   -3.8549   -7.4878   -11.1521   C
   8 C   -4.5084   -5.3430   -14.3290   C
   9 N   -2.6382   -2.1737   -14.1192   N
  10 C   -2.8538   -8.7298   -15.2525   C
  11 C   1.8848   -8.6789   -13.5600   C
  12 C   -2.6675   -9.6250   -12.0313   C
  13 C   -4.6051   -3.6505   -12.8181   C
  14 C   0.2360   -3.1872   -11.8063   C
  15 C   -4.1003   -6.1301   -8.7809   C
  16 C   -3.0062   -1.6734   -9.3057   C
  17 C   1.0827   -3.0819   -10.2955   C
  18 C   0.0027   -7.1714   -8.7806   C
  19 C   -2.0798   -1.1744   -7.8088   C
  20 C   -3.4690   -5.3520   -6.2527   C
  21 C   0.9940   -6.3854   -13.5198   C
  22 C   -1.3734   -6.6287   -16.2210   C
  23 C   -2.3412   -5.0863   -15.5098   C
  24 O   2.8919   -4.4426   -4.1287   O
  25 C   -1.3156   -6.1010   -5.9100   C
  26 C   0.6993   -6.1139   -8.0953   C
  27 N   0.2258   -1.4714   -6.7252   N
  28 C   2.0808   -3.5843   -5.3782   C
  29 C   1.6417   -3.2543   -7.8638   C
  30 C   -0.3734   -3.1234   -4.8835   C
  31 N   1.6814   -5.1089   -16.7348   N
  32 C   0.1553   -2.6377   -15.6018   C
  33 C   1.6320   -4.2754   -14.3301   C
  34 O   2.6446   -7.0235   -4.2941   O
  35 C   1.1213   -5.4612   -11.8160   C
  36 C   0.0701   -6.9811   -9.8061   C
  37 O   1.7574   -9.4244   -16.2803   O
  38 O   2.6804   -7.1085   -17.3496   O
  39 O   -3.4629   -1.9560   -12.8853   O
  40 O   -1.7308   -1.0194   -14.4261   O
  41 N   -0.0295   -0.3980   -6.9449   N
  42 O   0.8644   0.7009   -6.4515   O
  43 O   -1.2183   -0.0702   -7.7989   O
  44 N   2.4700   -5.5412   -17.4109   N
  45 O   3.3344   -4.6306   -18.2316   O

@<TRIPOS>BOND
   1   1  19   1
   2   1  20   1
   3   1  25   1
   4   1  30   1
   5   1  24   1
   6   2  26   1
   7   2  29   1
   8   2  35   1
   9   3  22   1
  10   3  23   1
  11   3   4   1
  12   4  22   1
  13   4  23   1
  14   4  32   1
  15   4  38   1
  16   4  40   1
  17   4  45   1
  18   5  24   1
  19   5  34   1
  20   6  37   1
  21   6  38   1
  22   7   8   1
  23   7  10   1
  24   7  12   1
  25   7  13   1
  26   7  15   1
  27   8  10   1
  28   8  13   1
  29   8  23   1
  30   8  39   1
  31   9  39   1
  32   9  40   1
  33  10  11   1
  34  10  12   1
  35  10  22   1
  36  10  23   1
  37  10  37   1
  38  11  12   1
  39  11  21   1
  40  11  33   1
  41  11  35   1
  42  11  36   1
  43  11  37   1
  44  12  15   1
  45  12  18   1
  46  12  36   1
  47  13  15   1
  48  13  16   1
  49  13  39   1
  50  14  16   1
  51  14  17   1
  52  14  32   1
  53  14  33   1
  54  14  40   1
  55  15  16   1
  56  15  18   1
  57  15  20   1
  58  15  25   1
  59  16  17   1
  60  16  19   1
  61  16  20   1
  62  16  39   1
  63  17  19   1
  64  17  29   1
  65  17  33   1
  66  17  35   1
  67  17  43   1
  68  18  25   1
  69  18  26   1
  70  18  36   1
  71  18  34   1
  72  19  20   1
  73  19  30   1
  74  19  43   1
  75  20  25   1
  76  21  33   1
  77  21  35   1
  78  22  23   1
  79  22  38   1
  80  23  39   1
  81  24  28   1
  82  24  29   1
  83  24  30   1
  84  25  34   1
  85  26  29   1
  86  26  35   1
  87  26  36   1
  88  26  34   1
  89  27  41   1
  90  28  29   1
  91  28  30   1
  92  28  42   1
  93  29  35   1
  94  29  42   1
  95  30  43   1
  96  31  44   1
  97  32  33   1
  98  32  40   1
  99  32  45   1
 100  33  35   1
 101  33  38   1
 102  33  45   1
 103  35  36   1
 104  38  44   1
 105  41  42   1
 106  41  43   1
 107  44  45   1
