@<TRIPOS>MOLECULE
*****
 29 81 0 0 0
SMALL
GASTEIGER

@<TRIPOS>ATOM
   1 C   8.3634   -0.3159   -0.4581   C
   2 C   7.5559   1.6681   2.4353   C
   3 C   6.5682   0.7428   2.7901   C
   4 C   7.2871   -1.1679   -0.1751   C
   5 C   5.2856   0.9786   2.3307   C
   6 C   5.9945   -0.9374   -0.6335   C
   7 C   5.0838   2.1046   1.5532   C
   8 C   5.6540   0.1652   -1.4256   C
   9 C   6.0657   2.9815   1.1765   C
  10 C   6.7322   0.9944   -1.7505   C
  11 C   8.0320   0.7576   -1.2874   C
  12 C   7.3606   2.7801   1.6141   C
  13 C   10.9432   0.6438   0.0820   C
  14 C   9.6388   1.8264   3.2221   C
  15 C   9.8282   -0.1783   -0.0645   C
  16 C   8.6430   0.9649   3.1368   C
  17 C   11.7269   3.4442   1.4371   C
  18 C   8.8281   3.0245   0.3690   C
  19 C   9.6207   2.9748   2.7876   C
  20 C   10.9457   1.8083   -0.3499   C
  21 C   9.5056   -2.0719   2.5939   C
  22 C   7.5010   -2.4088   2.8718   C
  23 C   3.6148   -1.7730   1.5244   C
  24 C   2.7590   1.6567   -0.7546   C
  25 C   5.9028   4.2107   -1.8915   C
  26 C   9.7462   3.4786   -0.5467   C
  27 C   11.8634   2.1821   4.6806   C
  28 C   13.7835   1.0685   0.8109   C
  29 C   11.2837   -2.0185   3.0094   C

@<TRIPOS>BOND
   1   1   4   1
   2   1  11   1
   3   1  15   1
   4   2   3   1
   5   2   5   1
   6   2   7   1
   7   2   9   1
   8   2  12   1
   9   2  14   1
  10   2  16   1
  11   2  19   1
  12   3   5   1
  13   3  16   1
  14   3  22   1
  15   3  23   1
  16   4   6   1
  17   4  11   1
  18   4  15   1
  19   4  21   1
  20   4  22   1
  21   4  23   1
  22   5   7   1
  23   5  23   1
  24   5  24   1
  25   6   8   1
  26   6  10   1
  27   6  11   1
  28   6  23   1
  29   7   9   1
  30   7  24   1
  31   8  10   1
  32   8  23   1
  33   8  24   1
  34   8  25   1
  35   9  12   1
  36   9  18   1
  37   9  24   1
  38   9  25   1
  39  10  11   1
  40  10  25   1
  41  10  26   1
  42  11  15   1
  43  11  20   1
  44  11  26   1
  45  12  18   1
  46  12  19   1
  47  13  15   1
  48  13  20   1
  49  13  28   1
  50  13  29   1
  51  14  16   1
  52  14  19   1
  53  14  27   1
  54  15  20   1
  55  15  21   1
  56  15  29   1
  57  16  21   1
  58  16  22   1
  59  16  27   1
  60  16  29   1
  61  17  19   1
  62  17  20   1
  63  17  26   1
  64  17  27   1
  65  17  28   1
  66  18  19   1
  67  18  25   1
  68  18  26   1
  69  19  26   1
  70  19  27   1
  71  20  26   1
  72  20  28   1
  73  21  22   1
  74  21  29   1
  75  22  23   1
  76  23  24   1
  77  24  25   1
  78  25  26   1
  79  27  28   1
  80  27  29   1
  81  28  29   1
