@<TRIPOS>MOLECULE
*****
 39 72 0 0 0
SMALL
GASTEIGER

@<TRIPOS>ATOM
   1 O   8.3634   -0.3159   -0.4581   O
   2 O   7.5559   1.6681   2.4353   O
   3 O   6.5682   0.7428   2.7901   O
   4 O   7.2871   -1.1679   -0.1751   O
   5 O   5.2856   0.9786   2.3307   O
   6 O   5.9945   -0.9374   -0.6335   O
   7 O   5.0838   2.1046   1.5532   O
   8 O   5.6540   0.1652   -1.4256   O
   9 O   6.0657   2.9815   1.1765   O
  10 O   6.7322   0.9944   -1.7505   O
  11 O   8.0320   0.7576   -1.2874   O
  12 O   7.3606   2.7801   1.6141   O
  13 C   10.9432   0.6438   0.0820   C
  14 C   9.6388   1.8264   3.2221   C
  15 C   8.8445   1.4647   2.9433   C
  16 C   6.8532   -0.3795   3.5771   C
  17 C   11.7269   3.4442   1.4371   C
  18 C   8.8281   3.0245   0.3690   C
  19 C   9.6207   2.9748   2.7876   C
  20 C   10.9457   1.8083   -0.3499   C
  21 C   9.5056   -2.0719   2.5939   C
  22 C   7.5010   -2.4088   2.8718   C
  23 C   3.6148   -1.7730   1.5244   C
  24 C   2.7590   1.6567   -0.7546   C
  25 C   5.9028   4.2107   -1.8915   C
  26 C   9.7462   3.4786   -0.5467   C
  27 C   11.8634   2.1821   4.6806   C
  28 C   13.7835   1.0685   0.8109   C
  29 C   11.2837   -2.0185   3.0094   C
  30 C   9.6548   -0.5191   0.0430   C
  31 C   7.5148   -2.3076   0.6054   C
  32 C   4.2319   0.1105   2.6409   C
  33 C   4.9949   -1.8529   -0.2832   C
  34 C   3.7833   2.3783   1.1130   C
  35 C   4.3460   0.4173   -1.8565   C
  36 C   5.7499   4.0700   0.3545   C
  37 C   6.5013   2.1048   -2.5713   C
  38 C   9.0504   1.6376   -1.6726   C
  39 C   8.4020   3.6425   1.2508   C

@<TRIPOS>BOND
   1   1   4   1
   2   1  11   1
   3   1  30   1
   4   2   3   1
   5   2  12   1
   6   2  15   1
   7   3   5   1
   8   3  16   1
   9   4   6   1
  10   4  31   1
  11   5   7   1
  12   5  32   1
  13   6   8   1
  14   6  33   1
  15   7   9   1
  16   7  34   1
  17   8  10   1
  18   8  35   1
  19   9  12   1
  20   9  36   1
  21  10  11   1
  22  10  37   1
  23  11  38   1
  24  12  39   1
  25  13  20   1
  26  13  28   1
  27  13  29   1
  28  13  30   1
  29  14  19   1
  30  14  27   1
  31  14  15   1
  32  15  21   1
  33  15  22   1
  34  15  27   1
  35  15  29   1
  36  15  19   1
  37  16  22   1
  38  17  19   1
  39  17  20   1
  40  17  26   1
  41  17  27   1
  42  17  28   1
  43  18  19   1
  44  18  25   1
  45  18  26   1
  46  18  39   1
  47  19  26   1
  48  19  27   1
  49  20  26   1
  50  20  28   1
  51  20  30   1
  52  20  38   1
  53  21  22   1
  54  21  29   1
  55  21  30   1
  56  21  31   1
  57  22  23   1
  58  22  31   1
  59  23  24   1
  60  23  32   1
  61  23  33   1
  62  24  25   1
  63  24  34   1
  64  24  35   1
  65  25  26   1
  66  25  36   1
  67  25  37   1
  68  26  38   1
  69  27  28   1
  70  27  29   1
  71  28  29   1
  72  29  30   1
