@<TRIPOS>MOLECULE
*****
 19 19 0 0 0
SMALL
GASTEIGER

@<TRIPOS>ATOM
   1 C    7.9597    0.6761    0.9886 C
   2 C    6.9276   -0.2126    1.3075 C
   3 C    5.6400    0.0206    0.8486 C
   4 C    5.3689    1.1349    0.0638 C
   5 C    6.3990    1.9880   -0.2870 C
   6 C    7.6963    1.7689    0.1633 C
   7 C    10.2910    1.2351    1.6521 C
   8 C    11.4888    0.6751    2.3661 C
   9 N    9.2356    0.3933    1.5361 N
  10 O    10.2832    2.3916    1.2188 O
  11 H    9.3253   -0.4261    1.8877 H
  12 H    7.1266   -0.9748    1.8504 H
  13 H    4.9221   -0.6152    1.0881 H
  14 H    4.4461    1.3194   -0.2256 H
  15 H    6.2234    2.7745   -0.8548 H
  16 H    8.4103    2.3644   -0.0840 H
  17 H    11.6215    1.2089    3.1859 H
  18 H    12.3082    0.8156    1.8107 H
  19 H    11.4167   -0.2725    2.5924 H
@<TRIPOS>BOND
   1   1   2   1
   1   1   6   1
   1   1   9   1
   1   2   3   1
   1   2  12   1
   1   3   4   1
   1   3  13   1
   1   4   5   1
   1   4  14   1
   1   5   6   1
   1   5  15   1
   1   6  16   1
   1   7   8   1
   1   7   9   1
   1   7  10   1
   1   8  17   1
   1   8  18   1
   1   8  19   1
   1   9  11   1
