@<TRIPOS>MOLECULE
*****
 43 75 0 0 0
SMALL
GASTEIGER

@<TRIPOS>ATOM
   1 S   8.3634   -0.3159   -0.4581   S
   2 S   7.5559   1.6681   2.4353   S
   3 S   6.5682   0.7428   2.7901   S
   4 S   7.2871   -1.1679   -0.1751   S
   5 S   5.2856   0.9786   2.3307   S
   6 S   5.9945   -0.9374   -0.6335   S
   7 S   5.0838   2.1046   1.5532   S
   8 S   5.6540   0.1652   -1.4256   S
   9 S   6.0657   2.9815   1.1765   S
  10 S   6.7322   0.9944   -1.7505   S
  11 S   8.0320   0.7576   -1.2874   S
  12 S   7.3606   2.7801   1.6141   S
  13 C   10.9432   0.6438   0.0820   C
  14 C   9.6388   1.8264   3.2221   C
  15 O   8.8445   1.4647   2.9433   O
  16 O   6.8532   -0.3795   3.5771   O
  17 N   11.7269   3.4442   1.4371   N
  18 C   8.8281   3.0245   0.3690   C
  19 C   9.6207   2.9748   2.7876   C
  20 C   10.9457   1.8083   -0.3499   C
  21 N   9.5056   -2.0719   2.5939   N
  22 C   7.5010   -2.4088   2.8718   C
  23 C   3.6148   -1.7730   1.5244   C
  24 C   2.7590   1.6567   -0.7546   C
  25 C   5.9028   4.2107   -1.8915   C
  26 C   9.7462   3.4786   -0.5467   C
  27 C   11.8634   2.1821   4.6806   C
  28 C   13.7835   1.0685   0.8109   C
  29 O   11.0633   -2.2667   3.0592   O
  30 O   9.6548   -0.5191   0.0430   O
  31 O   7.5148   -2.3076   0.6054   O
  32 O   4.2319   0.1105   2.6409   O
  33 O   4.9949   -1.8529   -0.2832   O
  34 O   3.7833   2.3783   1.1130   O
  35 O   4.3460   0.4173   -1.8565   O
  36 O   5.7499   4.0700   0.3545   O
  37 O   6.5013   2.1048   -2.5713   O
  38 O   9.0504   1.6376   -1.6726   O
  39 O   8.4020   3.6425   1.2508   O
  40 N   12.6292   4.1021   1.5736   N
  41 O   12.6311   5.4963   1.0203   O
  42 O   13.8476   3.5692   2.2676   O
  43 O   8.4105   -3.0806   2.4114   O

@<TRIPOS>BOND
   1   1   4   1
   2   1  11   1
   3   1  30   1
   4   2   3   1
   5   2  12   1
   6   2  15   1
   7   3   5   1
   8   3  16   1
   9   4   6   1
  10   4  31   1
  11   5   7   1
  12   5  32   1
  13   6   8   1
  14   6  33   1
  15   7   9   1
  16   7  34   1
  17   8  10   1
  18   8  35   1
  19   9  12   1
  20   9  36   1
  21  10  11   1
  22  10  37   1
  23  11  38   1
  24  12  39   1
  25  13  20   1
  26  13  28   1
  27  13  29   1
  28  13  30   1
  29  14  19   1
  30  14  27   1
  31  14  15   1
  32  15  22   1
  33  15  27   1
  34  15  29   1
  35  15  19   1
  36  16  22   1
  37  17  40   1
  38  18  19   1
  39  18  25   1
  40  18  26   1
  41  18  39   1
  42  19  26   1
  43  19  27   1
  44  19  42   1
  45  20  26   1
  46  20  28   1
  47  20  30   1
  48  20  38   1
  49  20  41   1
  50  21  43   1
  51  21  29   1
  52  22  23   1
  53  22  31   1
  54  22  43   1
  55  23  24   1
  56  23  32   1
  57  23  33   1
  58  24  25   1
  59  24  34   1
  60  24  35   1
  61  25  26   1
  62  25  36   1
  63  25  37   1
  64  26  38   1
  65  26  41   1
  66  27  28   1
  67  27  29   1
  68  27  42   1
  69  28  29   1
  70  28  42   1
  71  29  30   1
  72  30  43   1
  73  31  43   1
  74  40  41   1
  75  40  42   1
