@<TRIPOS>MOLECULE
*****
 29 0 0 0 0
SMALL
GASTEIGER

@<TRIPOS>ATOM
   1 C   8.3634   -0.3159   -0.4581   C
   2 C   7.5559   1.6681   2.4353   C
   3 C   6.5682   0.7428   2.7901   C
   4 C   7.2871   -1.1679   -0.1751   C
   5 C   5.2856   0.9786   2.3307   C
   6 C   5.9945   -0.9374   -0.6335   C
   7 C   5.0838   2.1046   1.5532   C
   8 C   5.6540   0.1652   -1.4256   C
   9 C   6.0657   2.9815   1.1765   C
  10 C   6.7322   0.9944   -1.7505   C
  11 C   8.0320   0.7576   -1.2874   C
  12 C   7.3606   2.7801   1.6141   C
  13 C   10.9432   0.6438   0.0820   C
  14 C   9.6388   1.8264   3.2221   C
  15 C   9.8282   -0.1783   -0.0645   C
  16 C   8.6430   0.9649   3.1368   C
  17 C   11.7269   3.4442   1.4371   C
  18 C   8.8281   3.0245   0.3690   C
  19 C   9.6207   2.9748   2.7876   C
  20 C   10.9457   1.8083   -0.3499   C
  21 C   9.5056   -2.0719   2.5939   C
  22 C   7.5010   -2.4088   2.8718   C
  23 C   3.6148   -1.7730   1.5244   C
  24 C   2.7590   1.6567   -0.7546   C
  25 C   5.9028   4.2107   -1.8915   C
  26 C   9.7462   3.4786   -0.5467   C
  27 C   11.8634   2.1821   4.6806   C
  28 C   13.7835   1.0685   0.8109   C
  29 C   11.2837   -2.0185   3.0094   C

@<TRIPOS>BOND
