@<TRIPOS>MOLECULE
*****
 33 35 0 0 0
SMALL
GASTEIGER

@<TRIPOS>ATOM
      1 H21         1.1990   -4.9080    2.7180 H       1    G1        0.1451
      2 N9         -0.5090   -0.1020    0.4970 N.ar    1    G1       -0.2854
      3 H22         2.2640   -3.6230    2.3210 H       1    G1        0.1451
      4 H1         -1.0830   -4.6480    2.3150 H       1    G1        0.1716
      5 O5*        -1.7980    2.8180   -1.5620 O.3     1    G1       -0.3924
      6 C1*         0.6520    0.7490    0.3450 C.3     1    G1        0.1667
      7 C2*         1.3460    0.5100   -1.0010 C.3     1    G1        0.1285
      8 C3*         0.6950    1.5440   -1.9230 C.3     1    G1        0.1135
      9 C4*         0.5070    2.7260   -0.9640 C.3     1    G1        0.1126
     10 C5*        -0.6360    3.6420   -1.3290 C.3     1    G1        0.0730
     11 O4*         0.2190    2.1110    0.3230 O.3     1    G1       -0.3457
     12 H1*         1.3210    0.5730    1.1700 H       1    G1        0.0866
     13 H2*         1.2700   -0.5120   -1.3360 H       1    G1        0.0665
     14 O2*         2.7170    0.9590   -0.9270 O.3     1    G1       -0.3847
     15 H2*         3.2850    0.3290   -0.4660 H       1    G1        0.2101
     16 H3*        -0.2610    1.2090   -2.2820 H       1    G1        0.0647
     17 H4*         1.4290    3.2840   -0.8970 H       1    G1        0.0647
     18 H5*1       -0.3630    4.1870   -2.2240 H       1    G1        0.0584
     19 H5*2       -0.8100    4.3380   -0.5190 H       1    G1        0.0584
     20 O3*         1.5130    1.8810   -3.0360 O.3     1    G1       -0.3864
     21 H8         -2.0970    1.1490   -0.2150 H       1    G1        0.1030
     22 N1         -0.9250   -3.7300    1.9510 N.ar    1    G1       -0.2934
     23 C2          0.3380   -3.2200    1.8960 C.ar    1    G1        0.1950
     24 N2          1.3420   -3.9960    2.3480 N.pl3   1    G1       -0.3289
     25 N3          0.5940   -2.0340    1.4290 N.ar    1    G1       -0.1963
     26 C4         -0.5070   -1.3540    1.0150 C.ar    1    G1        0.1712
     27 C5         -1.8090   -1.7740    1.0280 C.ar    1    G1        0.1721
     28 C6         -2.1220   -3.0710    1.5270 C.ar    1    G1        0.2803
     29 O6         -3.1750   -3.6590    1.6390 O.2     1    G1       -0.2654
     30 N7         -2.6270   -0.7690    0.5180 N.ar    1    G1       -0.2286
     31 C8         -1.8420    0.2130    0.2150 C.ar    1    G1        0.1005
     32 H3*         2.4350    1.8360   -2.7380 H       1    G1        0.2100
     33 H5*        -2.5610    3.3420   -1.8350 H       1    G1        0.2095
@<TRIPOS>BOND
     1    20    32    1
     2    20     8    1
     3    16     8    1
     4    18    10    1
     5     8     7    1
     6     8     9    1
     7    33     5    1
     8     5    10    1
     9    13     7    1
    10    10     9    1
    11    10    19    1
    12     7    14    1
    13     7     6    1
    14     9    17    1
    15     9    11    1
    16    14    15    1
    17    21    31    1
    18    31     2   ar
    19    31    30   ar
    20    11     6    1
    21     6     2    1
    22     6    12    1
    23     2    26   ar
    24    30    27   ar
    25    26    27   ar
    26    26    25   ar
    27    27    28   ar
    28    25    23   ar
    29    28    29    2
    30    28    22   ar
    31    23    22   ar
    32    23    24    1
    33    22     4    1
    34     3    24    1
    35    24     1    1
