@<TRIPOS>MOLECULE
*****
 68 137 0 0 0
SMALL
GASTEIGER

@<TRIPOS>ATOM
   1 C   2.5350   6.5430   1.3018   C
   2 C   2.6677   8.4446   5.5253   C
   3 C   1.2878   6.4097   1.7382   C
   4 C   1.3919   3.1039   -0.6584   C
   5 C   3.6988   1.4254   4.9178   C
   6 C   4.2339   7.7812   6.6875   C
   7 C   3.0763   1.3308   -1.3267   C
   8 C   7.2816   3.2684   3.6789   C
   9 C   6.2096   2.1426   4.0429   C
  10 C   6.0952   9.2804   4.2602   C
  11 C   8.2671   3.9765   0.9712   C
  12 C   7.2404   -0.4035   0.5965   C
  13 C   5.7913   7.8725   0.0575   C
  14 C   9.3565   7.4912   2.7892   C
  15 O   -0.6141   -0.8512   4.2709   O
  16 C   -0.4939   4.8355   1.5633   C
  17 N   0.5132   0.1384   4.2597   N
  18 C   5.5248   2.1994   4.7951   C
  19 N   2.7887   -1.8469   1.5715   N
  20 N   9.4968   5.1070   5.3505   N
  21 N   5.9388   4.9702   -1.4716   N
  22 O   0.9023   0.8462   5.5237   O
  23 O   3.1879   -3.2687   1.8345   O
  24 O   1.3530   -1.5093   1.2980   O
  25 N   0.2312   5.8502   5.4831   N
  26 N   2.8787   4.3908   6.5147   N
  27 O   10.6339   5.5652   6.2147   O
  28 N   0.4797   1.8524   3.4422   N
  29 O   9.6902   3.9614   4.4016   O
  30 N   3.6457   7.8704   2.9939   N
  31 C   2.5612   -0.8855   1.4082   C
  32 C   0.6625   1.2706   0.7857   C
  33 C   5.8080   4.6348   7.5091   C
  34 C   5.4004   0.1226   3.2075   C
  35 C   5.8531   -0.2822   0.3315   C
  36 C   6.5121   6.1757   7.1747   C
  37 C   7.3499   8.0553   5.0756   C
  38 N   4.0575   3.8275   -0.4306   N
  39 O   5.4873   5.4738   -2.8105   O
  40 C   3.9759   1.9261   -0.9627   C
  41 C   6.6594   1.4315   -2.0541   C
  42 N   7.7484   4.1419   3.1686   N
  43 C   8.0327   4.9600   0.3594   C
  44 O   6.5213   5.9224   -0.4696   O
  45 N   -0.7314   6.3375   5.8021   N
  46 O   -2.0504   6.0957   5.1301   O
  47 O   -0.9279   5.9516   7.2382   O
  48 O   -0.4717   7.7655   5.4233   O
  49 N   -0.0156   0.9114   3.8094   N
  50 O   -1.3039   0.3775   3.2569   O
  51 O   0.9939   -0.1818   3.6201   O
  52 O   -0.4421   1.3277   5.1859   O
  53 N   3.0711   8.8373   2.9688   N
  54 O   2.1480   9.3375   4.0401   O
  55 O   4.1087   9.9088   2.8102   O
  56 O   2.0727   8.5169   1.8961   O
  57 N   1.9788   4.0808   6.9302   N
  58 O   1.0274   3.0814   6.3420   O
  59 O   2.0367   3.7749   8.3976   O
  60 O   1.3844   5.3682   6.4410   O
  61 N   3.7307   3.9187   -1.5032   N
  62 O   2.2977   3.8765   -1.9443   O
  63 O   4.2668   5.2351   -1.9828   O
  64 O   4.2464   2.6305   -2.0729   O
  65 N   8.2233   3.5658   4.0102   N
  66 O   7.4564   2.6946   4.9605   O
  67 O   9.2427   2.6717   3.3688   O
  68 O   8.6487   4.6805   4.9194   O

@<TRIPOS>BOND
   1   1   3   1
   2   1   4   1
   3   1  13   1
   4   1  44   1
   5   1  56   1
   6   1  63   1
   7   2   3   1
   8   2   6   1
   9   2  10   1
  10   2  48   1
  11   2  54   1
  12   3   4   1
  13   3  16   1
  14   3  48   1
  15   3  56   1
  16   4   7   1
  17   4  16   1
  18   4  32   1
  19   4  62   1
  20   5  18   1
  21   5  33   1
  22   5  34   1
  23   5  22   1
  24   5  24   1
  25   5  58   1
  26   6  10   1
  27   6  26   1
  28   6  33   1
  29   6  36   1
  30   6  37   1
  31   6  48   1
  32   6  60   1
  33   7  31   1
  34   7  32   1
  35   7  35   1
  36   7  40   1
  37   7  41   1
  38   7  24   1
  39   7  64   1
  40   8   9   1
  41   8  11   1
  42   8  12   1
  43   8  29   1
  44   8  66   1
  45   9  12   1
  46   9  18   1
  47   9  34   1
  48   9  29   1
  49  10  13   1
  50  10  14   1
  51  10  37   1
  52  10  55   1
  53  11  12   1
  54  11  14   1
  55  11  41   1
  56  11  43   1
  57  11  29   1
  58  11  67   1
  59  12  34   1
  60  12  35   1
  61  12  41   1
  62  12  23   1
  63  13  14   1
  64  13  43   1
  65  13  44   1
  66  13  55   1
  67  14  37   1
  68  14  43   1
  69  14  29   1
  70  15  17   1
  71  15  31   1
  72  15  32   1
  73  15  24   1
  74  16  32   1
  75  16  46   1
  76  16  50   1
  77  17  22   1
  78  18  33   1
  79  18  34   1
  80  18  29   1
  81  19  23   1
  82  19  24   1
  83  20  27   1
  84  20  29   1
  85  21  39   1
  86  21  44   1
  87  22  26   1
  88  22  47   1
  89  22  52   1
  90  22  58   1
  91  23  34   1
  92  23  35   1
  93  24  31   1
  94  25  45   1
  95  26  47   1
  96  26  60   1
  97  26  57   1
  98  27  36   1
  99  27  37   1
 100  28  49   1
 101  29  33   1
 102  29  68   1
 103  30  53   1
 104  31  32   1
 105  32  51   1
 106  33  36   1
 107  33  59   1
 108  35  41   1
 109  36  37   1
 110  38  61   1
 111  39  40   1
 112  39  41   1
 113  39  63   1
 114  40  41   1
 115  40  64   1
 116  41  43   1
 117  42  65   1
 118  43  44   1
 119  45  46   1
 120  45  47   1
 121  45  48   1
 122  46  52   1
 123  49  50   1
 124  49  51   1
 125  49  52   1
 126  53  54   1
 127  53  55   1
 128  53  56   1
 129  57  58   1
 130  57  59   1
 131  57  60   1
 132  61  62   1
 133  61  63   1
 134  61  64   1
 135  65  66   1
 136  65  67   1
 137  65  68   1
