@<TRIPOS>MOLECULE
*****
 39 111 0 0 0
SMALL
GASTEIGER

@<TRIPOS>ATOM
   1 C   2.5350   6.5430   1.3018   C
   2 C   2.6677   8.4446   5.5253   C
   3 C   1.2878   6.4097   1.7382   C
   4 C   1.3919   3.1039   -0.6584   C
   5 C   3.6988   1.4254   4.9178   C
   6 C   4.2339   7.7812   6.6875   C
   7 C   3.0763   1.3308   -1.3267   C
   8 C   7.2816   3.2684   3.6789   C
   9 C   6.2096   2.1426   4.0429   C
  10 C   6.0952   9.2804   4.2602   C
  11 C   8.2671   3.9765   0.9712   C
  12 C   7.2404   -0.4035   0.5965   C
  13 C   5.7913   7.8725   0.0575   C
  14 C   9.3565   7.4912   2.7892   C
  15 C   1.2360   2.9331   3.5186   C
  16 C   -0.4939   4.8355   1.5633   C
  17 C   0.5132   0.1384   4.2597   C
  18 C   5.5248   2.1994   4.7951   C
  19 C   2.7887   -1.8469   1.5715   C
  20 C   9.4968   5.1070   5.3505   C
  21 C   5.9388   4.9702   -1.4716   C
  22 C   2.7415   3.1816   4.4812   C
  23 C   0.2312   5.8502   5.4831   C
  24 C   2.7096   4.5856   6.4302   C
  25 C   0.4797   1.8524   3.4422   C
  26 C   3.6457   7.8704   2.9939   C
  27 C   2.5612   -0.8855   1.4082   C
  28 C   0.6625   1.2706   0.7857   C
  29 C   3.0478   4.1961   6.5991   C
  30 C   5.8080   4.6348   7.5091   C
  31 C   5.4004   0.1226   3.2075   C
  32 C   5.8531   -0.2822   0.3315   C
  33 C   6.5121   6.1757   7.1747   C
  34 C   7.3499   8.0553   5.0756   C
  35 C   4.0575   3.8275   -0.4306   C
  36 C   3.9759   1.9261   -0.9627   C
  37 C   6.6594   1.4315   -2.0541   C
  38 C   7.7484   4.1419   3.1686   C
  39 C   8.0327   4.9600   0.3594   C

@<TRIPOS>BOND
   1   1   3   1
   2   1   4   1
   3   1  13   1
   4   1  21   1
   5   1  26   1
   6   1  35   1
   7   2   3   1
   8   2   6   1
   9   2  10   1
  10   2  23   1
  11   2  24   1
  12   2  26   1
  13   3   4   1
  14   3  16   1
  15   3  23   1
  16   3  26   1
  17   4   7   1
  18   4  16   1
  19   4  28   1
  20   4  35   1
  21   5  17   1
  22   5  18   1
  23   5  19   1
  24   5  22   1
  25   5  29   1
  26   5  30   1
  27   5  31   1
  28   6  10   1
  29   6  24   1
  30   6  29   1
  31   6  30   1
  32   6  33   1
  33   6  34   1
  34   7  19   1
  35   7  27   1
  36   7  28   1
  37   7  32   1
  38   7  35   1
  39   7  36   1
  40   7  37   1
  41   8   9   1
  42   8  11   1
  43   8  12   1
  44   8  18   1
  45   8  20   1
  46   8  30   1
  47   8  38   1
  48   9  12   1
  49   9  18   1
  50   9  31   1
  51  10  13   1
  52  10  14   1
  53  10  26   1
  54  10  34   1
  55  11  12   1
  56  11  14   1
  57  11  20   1
  58  11  37   1
  59  11  38   1
  60  11  39   1
  61  12  31   1
  62  12  32   1
  63  12  37   1
  64  13  14   1
  65  13  21   1
  66  13  26   1
  67  13  39   1
  68  14  20   1
  69  14  34   1
  70  14  39   1
  71  15  22   1
  72  15  23   1
  73  15  24   1
  74  15  25   1
  75  16  23   1
  76  16  25   1
  77  16  28   1
  78  17  19   1
  79  17  22   1
  80  17  25   1
  81  17  27   1
  82  17  28   1
  83  18  30   1
  84  18  31   1
  85  19  27   1
  86  19  31   1
  87  19  32   1
  88  20  30   1
  89  20  33   1
  90  20  34   1
  91  20  38   1
  92  21  35   1
  93  21  36   1
  94  21  37   1
  95  21  39   1
  96  22  24   1
  97  22  25   1
  98  22  29   1
  99  23  24   1
 100  23  25   1
 101  24  29   1
 102  25  28   1
 103  27  28   1
 104  29  30   1
 105  30  33   1
 106  31  32   1
 107  32  37   1
 108  33  34   1
 109  35  36   1
 110  36  37   1
 111  37  39   1
