@<TRIPOS>MOLECULE
*****
 7 0 0 0 0
SMALL
GASTEIGER

@<TRIPOS>ATOM
  1  C   1.2360   2.9331   3.5186   C
  2  C   4.6161   4.0391   1.2834   C
  3  C   2.7415   3.1816   4.4812   C
  4  C   5.5703   3.4582   3.5602   C
  5  C   1.9172   4.2832   4.2575   C
  6  C   4.5560   5.5316   1.4176   C
  7  C   5.9143   4.8026   1.7368   C

@<TRIPOS>BOND
