@<TRIPOS>MOLECULE
*****
 67 131 0 0 0
SMALL
GASTEIGER

@<TRIPOS>ATOM
   1 C   2.5350   6.5430   1.3018   C
   2 C   2.6677   8.4446   5.5253   C
   3 C   1.2878   6.4097   1.7382   C
   4 C   1.3919   3.1039   -0.6584   C
   5 C   3.6988   1.4254   4.9178   C
   6 C   4.2339   7.7812   6.6875   C
   7 C   3.0763   1.3308   -1.3267   C
   8 C   7.2816   3.2684   3.6789   C
   9 O   6.0955   2.2140   3.7059   O
  10 C   6.0952   9.2804   4.2602   C
  11 C   8.2671   3.9765   0.9712   C
  12 C   7.2404   -0.4035   0.5965   C
  13 C   5.7913   7.8725   0.0575   C
  14 C   9.3565   7.4912   2.7892   C
  15 O   -0.6141   -0.8512   4.2709   O
  16 C   -0.4939   4.8355   1.5633   C
  17 N   0.5132   0.1384   4.2597   N
  18 N   5.5248   2.1994   4.7951   N
  19 N   2.7887   -1.8469   1.5715   N
  20 C   9.4968   5.1070   5.3505   C
  21 N   5.9388   4.9702   -1.4716   N
  22 O   0.9023   0.8462   5.5237   O
  23 O   5.5040   0.8741   5.4974   O
  24 N   0.2312   5.8502   5.4831   N
  25 C   2.8787   4.3908   6.5147   C
  26 O   3.1879   -3.2687   1.8345   O
  27 N   0.4797   1.8524   3.4422   N
  28 O   1.3530   -1.5093   1.2980   O
  29 N   3.6457   7.8704   2.9939   N
  30 C   2.5612   -0.8855   1.4082   C
  31 C   0.6625   1.2706   0.7857   C
  32 C   5.8080   4.6348   7.5091   C
  33 C   5.4004   0.1226   3.2075   C
  34 C   5.8531   -0.2822   0.3315   C
  35 N   6.5121   6.1757   7.1747   N
  36 C   7.3499   8.0553   5.0756   C
  37 N   4.0575   3.8275   -0.4306   N
  38 O   5.4873   5.4738   -2.8105   O
  39 C   3.9759   1.9261   -0.9627   C
  40 C   6.6594   1.4315   -2.0541   C
  41 N   7.7484   4.1419   3.1686   N
  42 C   8.0327   4.9600   0.3594   C
  43 O   6.5213   5.9224   -0.4696   O
  44 N   -0.7314   6.3375   5.8021   N
  45 O   -2.0504   6.0957   5.1301   O
  46 O   -0.9279   5.9516   7.2382   O
  47 O   -0.4717   7.7655   5.4233   O
  48 N   -0.0156   0.9114   3.8094   N
  49 O   -1.3039   0.3775   3.2569   O
  50 O   0.9939   -0.1818   3.6201   O
  51 O   -0.4421   1.3277   5.1859   O
  52 N   3.0711   8.8373   2.9688   N
  53 O   2.1480   9.3375   4.0401   O
  54 O   4.1087   9.9088   2.8102   O
  55 O   2.0727   8.5169   1.8961   O
  56 N   6.1104   6.0875   8.2218   N
  57 O   6.5862   5.0679   9.2138   O
  58 O   6.3466   7.4226   8.8635   O
  59 O   4.7157   5.6034   7.9564   O
  60 N   3.7307   3.9187   -1.5032   N
  61 O   2.2977   3.8765   -1.9443   O
  62 O   4.2668   5.2351   -1.9828   O
  63 O   4.2464   2.6305   -2.0729   O
  64 N   8.2233   3.5658   4.0102   N
  65 O   7.4564   2.6946   4.9605   O
  66 O   9.2427   2.6717   3.3688   O
  67 O   8.6487   4.6805   4.9194   O

@<TRIPOS>BOND
   1   1   3   1
   2   1   4   1
   3   1  13   1
   4   1  43   1
   5   1  55   1
   6   1  62   1
   7   2   3   1
   8   2   6   1
   9   2  10   1
  10   2  47   1
  11   2  53   1
  12   3   4   1
  13   3  16   1
  14   3  47   1
  15   3  55   1
  16   4   7   1
  17   4  16   1
  18   4  31   1
  19   4  61   1
  20   5  32   1
  21   5  33   1
  22   5  22   1
  23   5  23   1
  24   5  28   1
  25   5  25   1
  26   6  10   1
  27   6  25   1
  28   6  32   1
  29   6  36   1
  30   6  47   1
  31   6  59   1
  32   7  30   1
  33   7  31   1
  34   7  34   1
  35   7  39   1
  36   7  40   1
  37   7  28   1
  38   7  63   1
  39   8   9   1
  40   8  11   1
  41   8  12   1
  42   8  20   1
  43   8  65   1
  44   9  12   1
  45   9  20   1
  46   9  33   1
  47   9  18   1
  48  10  13   1
  49  10  14   1
  50  10  36   1
  51  10  54   1
  52  11  12   1
  53  11  14   1
  54  11  20   1
  55  11  40   1
  56  11  42   1
  57  11  66   1
  58  12  33   1
  59  12  34   1
  60  12  40   1
  61  12  26   1
  62  13  14   1
  63  13  42   1
  64  13  43   1
  65  13  54   1
  66  14  20   1
  67  14  36   1
  68  14  42   1
  69  15  17   1
  70  15  30   1
  71  15  31   1
  72  15  28   1
  73  16  31   1
  74  16  45   1
  75  16  49   1
  76  17  22   1
  77  18  23   1
  78  19  26   1
  79  19  28   1
  80  20  32   1
  81  20  36   1
  82  20  57   1
  83  20  67   1
  84  21  38   1
  85  21  43   1
  86  22  25   1
  87  22  46   1
  88  22  51   1
  89  23  32   1
  90  24  44   1
  91  25  46   1
  92  25  32   1
  93  26  33   1
  94  26  34   1
  95  27  48   1
  96  28  30   1
  97  29  52   1
  98  30  31   1
  99  31  50   1
 100  32  59   1
 101  34  40   1
 102  35  56   1
 103  36  58   1
 104  37  60   1
 105  38  39   1
 106  38  40   1
 107  38  62   1
 108  39  40   1
 109  39  63   1
 110  40  42   1
 111  41  64   1
 112  42  43   1
 113  44  45   1
 114  44  46   1
 115  44  47   1
 116  45  51   1
 117  48  49   1
 118  48  50   1
 119  48  51   1
 120  52  53   1
 121  52  54   1
 122  52  55   1
 123  56  57   1
 124  56  58   1
 125  56  59   1
 126  60  61   1
 127  60  62   1
 128  60  63   1
 129  64  65   1
 130  64  66   1
 131  64  67   1
