@<TRIPOS>MOLECULE
*****
 45 46 0 0 0
SMALL
GASTEIGER

@<TRIPOS>ATOM
   1 H    3.1442    4.9303    1.8194 H
   2 H    2.5847    6.8639    4.6683 H
   3 H    2.0951    6.1418    3.3245 H
   4 H    2.0064    3.0488    1.0326 H
   5 H    3.1435    1.5413    3.2096 H
   6 H    4.6403    6.3085    5.7357 H
   7 H    3.6675    1.3157    0.3734 H
   8 H    6.6148    4.8348    4.2632 H
   9 H    5.4968    2.2747    2.3953 H
  10 H    5.9948    7.5686    3.7127 H
  11 H    6.9336    2.8179    0.6255 H
  12 H    6.5696    1.2636    0.4926 H
  13 H    6.4684    6.9455    1.4439 H
  14 H    7.7333    6.8101    2.4132 H
  15 H    1.6009    4.3905    4.5100 H
  16 H    0.7102    3.8281    2.4438 H
  17 H    1.3989    0.4764    2.7297 H
  18 H    5.0020    3.6867    5.6639 H
  19 H    4.0325   -0.5459    1.5842 H
  20 H    7.9001    5.9318    5.4519 H
  21 H    5.7815    3.2232   -1.0674 H
  22 H    6.2339    4.7376    1.6507 H
  23 C    3.4827    4.0342    2.1070 C
  24 C    2.5391    5.9946    4.1969 C
  25 C    2.3476    3.0182    1.9716 C
  26 C    3.9486    5.4660    3.9679 C
  27 C    2.8349    1.6057    2.2606 C
  28 C    4.8659    5.4906    5.2070 C
  29 C    3.9959    1.3073    1.3176 C
  30 C    6.2445    5.7048    4.5878 C
  31 C    5.1009    2.3480    1.4801 C
  32 C    5.9391    6.6180    3.4086 C
  33 C    6.2005    2.1809    0.4354 C
  34 C    6.8408    6.4356    2.2065 C
  35 O    3.8988    4.1201    3.4713 O
  36 O    1.7712    5.0707    4.9728 O
  37 O    1.2721    3.3580    2.8547 O
  38 O    4.5650    6.3234    3.0340 O
  39 O    1.8121    0.6342    2.0159 O
  40 O    4.7581    4.3805    6.0693 O
  41 O    4.6129    0.0612    1.5901 O
  42 O    7.1548    6.3168    5.4993 O
  43 O    4.5802    3.6816    1.2856 O
  44 O    5.7081    2.4082   -0.8788 O
  45 O    6.9887    5.0636    1.8220 O
@<TRIPOS>BOND
   1   1  23   1
   1   2  24   1
   1   3  24   1
   1   4  25   1
   1   5  27   1
   1   6  28   1
   1   7  29   1
   1   8  30   1
   1   9  31   1
   1  10  32   1
   1  11  33   1
   1  12  33   1
   1  13  34   1
   1  14  34   1
   1  15  36   1
   1  16  37   1
   1  17  39   1
   1  18  40   1
   1  19  41   1
   1  20  42   1
   1  21  44   1
   1  22  45   1
   1  23  25   1
   1  23  35   1
   1  23  43   1
   1  24  26   1
   1  24  36   1
   1  25  27   1
   1  25  37   1
   1  26  28   1
   1  26  35   1
   1  26  38   1
   1  27  29   1
   1  27  39   1
   1  28  30   1
   1  28  40   1
   1  29  31   1
   1  29  41   1
   1  30  32   1
   1  30  42   1
   1  31  33   1
   1  31  43   1
   1  32  34   1
   1  32  38   1
   1  33  44   1
   1  34  45   1
