@<TRIPOS>MOLECULE
*****
 65 129 0 0 0
SMALL
GASTEIGER

@<TRIPOS>ATOM
   1 C   2.5350   6.5430   1.3018   C
   2 C   2.6677   8.4446   5.5253   C
   3 C   1.2878   6.4097   1.7382   C
   4 C   1.3919   3.1039   -0.6584   C
   5 C   3.6988   1.4254   4.9178   C
   6 C   4.2339   7.7812   6.6875   C
   7 C   3.0763   1.3308   -1.3267   C
   8 C   7.2816   3.2684   3.6789   C
   9 O   6.0955   2.2140   3.7059   O
  10 C   6.0952   9.2804   4.2602   C
  11 C   8.2671   3.9765   0.9712   C
  12 C   7.2404   -0.4035   0.5965   C
  13 C   5.7913   7.8725   0.0575   C
  14 C   9.3565   7.4912   2.7892   C
  15 O   -1.7227   5.3250   2.2706   O
  16 N   -0.4939   4.8355   1.5633   N
  17 N   0.5132   0.1384   4.2597   N
  18 N   5.5248   2.1994   4.7951   N
  19 N   2.7887   -1.8469   1.5715   N
  20 N   9.4968   5.1070   5.3505   N
  21 C   5.9388   4.9702   -1.4716   C
  22 O   -0.2684   5.1855   0.1222   O
  23 O   -0.6141   -0.8512   4.2709   O
  24 O   0.9023   0.8462   5.5237   O
  25 N   0.2312   5.8502   5.4831   N
  26 C   2.8787   4.3908   6.5147   C
  27 O   5.5040   0.8741   5.4974   O
  28 C   0.4797   1.8524   3.4422   C
  29 N   3.6457   7.8704   2.9939   N
  30 C   2.5612   -0.8855   1.4082   C
  31 C   0.6625   1.2706   0.7857   C
  32 C   5.8080   4.6348   7.5091   C
  33 C   5.4004   0.1226   3.2075   C
  34 C   5.8531   -0.2822   0.3315   C
  35 C   6.5121   6.1757   7.1747   C
  36 C   7.3499   8.0553   5.0756   C
  37 N   4.0575   3.8275   -0.4306   N
  38 O   3.1879   -3.2687   1.8345   O
  39 C   3.9759   1.9261   -0.9627   C
  40 N   6.6594   1.4315   -2.0541   N
  41 N   7.7484   4.1419   3.1686   N
  42 C   8.0327   4.9600   0.3594   C
  43 O   1.3530   -1.5093   1.2980   O
  44 O   10.6339   5.5652   6.2147   O
  45 O   9.6902   3.9614   4.4016   O
  46 N   -0.7314   6.3375   5.8021   N
  47 O   -2.0504   6.0957   5.1301   O
  48 O   -0.9279   5.9516   7.2382   O
  49 O   -0.4717   7.7655   5.4233   O
  50 N   3.0711   8.8373   2.9688   N
  51 O   2.1480   9.3375   4.0401   O
  52 O   4.1087   9.9088   2.8102   O
  53 O   2.0727   8.5169   1.8961   O
  54 N   3.7307   3.9187   -1.5032   N
  55 O   2.2977   3.8765   -1.9443   O
  56 O   4.2668   5.2351   -1.9828   O
  57 O   4.2464   2.6305   -2.0729   O
  58 N   7.2539   0.8211   -2.7886   N
  59 O   8.3507   1.3838   -3.6432   O
  60 O   7.8834   -0.2809   -1.9890   O
  61 O   6.2105   0.5141   -3.8216   O
  62 N   8.2233   3.5658   4.0102   N
  63 O   7.4564   2.6946   4.9605   O
  64 O   9.2427   2.6717   3.3688   O
  65 O   8.6487   4.6805   4.9194   O

@<TRIPOS>BOND
   1   1   3   1
   2   1   4   1
   3   1  13   1
   4   1  21   1
   5   1  53   1
   6   1  56   1
   7   2   3   1
   8   2   6   1
   9   2  10   1
  10   2  49   1
  11   2  51   1
  12   3   4   1
  13   3  22   1
  14   3  49   1
  15   3  53   1
  16   4   7   1
  17   4  31   1
  18   4  22   1
  19   4  55   1
  20   5  32   1
  21   5  33   1
  22   5  24   1
  23   5  27   1
  24   5  43   1
  25   5  26   1
  26   6  10   1
  27   6  26   1
  28   6  32   1
  29   6  35   1
  30   6  36   1
  31   6  49   1
  32   7  30   1
  33   7  31   1
  34   7  34   1
  35   7  39   1
  36   7  43   1
  37   7  57   1
  38   7  61   1
  39   8   9   1
  40   8  11   1
  41   8  12   1
  42   8  45   1
  43   8  63   1
  44   9  12   1
  45   9  33   1
  46   9  45   1
  47   9  18   1
  48  10  13   1
  49  10  14   1
  50  10  36   1
  51  10  52   1
  52  11  12   1
  53  11  14   1
  54  11  42   1
  55  11  45   1
  56  11  60   1
  57  11  64   1
  58  12  33   1
  59  12  34   1
  60  12  38   1
  61  12  60   1
  62  13  14   1
  63  13  21   1
  64  13  42   1
  65  13  52   1
  66  14  36   1
  67  14  42   1
  68  14  45   1
  69  15  16   1
  70  15  28   1
  71  15  47   1
  72  16  22   1
  73  17  23   1
  74  17  24   1
  75  18  27   1
  76  19  38   1
  77  19  43   1
  78  20  44   1
  79  20  45   1
  80  21  39   1
  81  21  42   1
  82  21  56   1
  83  21  59   1
  84  22  31   1
  85  23  30   1
  86  23  31   1
  87  23  43   1
  88  24  26   1
  89  24  28   1
  90  24  48   1
  91  25  46   1
  92  26  48   1
  93  26  32   1
  94  27  32   1
  95  28  31   1
  96  28  47   1
  97  29  50   1
  98  30  31   1
  99  30  43   1
 100  32  35   1
 101  32  45   1
 102  33  38   1
 103  34  38   1
 104  34  60   1
 105  35  36   1
 106  35  44   1
 107  36  44   1
 108  37  54   1
 109  39  57   1
 110  39  61   1
 111  40  58   1
 112  41  62   1
 113  42  59   1
 114  45  65   1
 115  46  47   1
 116  46  48   1
 117  46  49   1
 118  50  51   1
 119  50  52   1
 120  50  53   1
 121  54  55   1
 122  54  56   1
 123  54  57   1
 124  58  59   1
 125  58  60   1
 126  58  61   1
 127  62  63   1
 128  62  64   1
 129  62  65   1
