@<TRIPOS>MOLECULE
*****
 65 132 0 0 0
SMALL
GASTEIGER

@<TRIPOS>ATOM
   1 C   2.5350   6.5430   1.3018   C
   2 C   2.6677   8.4446   5.5253   C
   3 C   1.2878   6.4097   1.7382   C
   4 C   1.3919   3.1039   -0.6584   C
   5 C   3.6988   1.4254   4.9178   C
   6 C   4.2339   7.7812   6.6875   C
   7 C   3.0763   1.3308   -1.3267   C
   8 C   7.2816   3.2684   3.6789   C
   9 O   6.0955   2.2140   3.7059   O
  10 C   6.0952   9.2804   4.2602   C
  11 C   8.2671   3.9765   0.9712   C
  12 C   7.2404   -0.4035   0.5965   C
  13 C   5.7913   7.8725   0.0575   C
  14 C   9.3565   7.4912   2.7892   C
  15 O   -0.6141   -0.8512   4.2709   O
  16 C   -0.4939   4.8355   1.5633   C
  17 N   0.5132   0.1384   4.2597   N
  18 N   5.5248   2.1994   4.7951   N
  19 N   2.7887   -1.8469   1.5715   N
  20 N   9.4968   5.1070   5.3505   N
  21 N   5.9388   4.9702   -1.4716   N
  22 O   0.9023   0.8462   5.5237   O
  23 O   5.5040   0.8741   5.4974   O
  24 C   0.2312   5.8502   5.4831   C
  25 N   2.8787   4.3908   6.5147   N
  26 O   3.1879   -3.2687   1.8345   O
  27 N   0.4797   1.8524   3.4422   N
  28 O   1.3530   -1.5093   1.2980   O
  29 N   3.6457   7.8704   2.9939   N
  30 C   2.5612   -0.8855   1.4082   C
  31 C   0.6625   1.2706   0.7857   C
  32 C   5.8080   4.6348   7.5091   C
  33 C   5.4004   0.1226   3.2075   C
  34 C   5.8531   -0.2822   0.3315   C
  35 C   6.5121   6.1757   7.1747   C
  36 C   7.3499   8.0553   5.0756   C
  37 N   4.0575   3.8275   -0.4306   N
  38 O   10.6339   5.5652   6.2147   O
  39 C   3.9759   1.9261   -0.9627   C
  40 C   6.6594   1.4315   -2.0541   C
  41 N   7.7484   4.1419   3.1686   N
  42 C   8.0327   4.9600   0.3594   C
  43 O   9.6902   3.9614   4.4016   O
  44 O   5.4873   5.4738   -2.8105   O
  45 O   6.5213   5.9224   -0.4696   O
  46 N   3.2961   4.2824   7.3411   N
  47 O   4.0423   2.9865   7.4582   O
  48 O   4.3172   5.3617   7.5472   O
  49 O   2.1946   4.0727   8.3375   O
  50 N   -0.0156   0.9114   3.8094   N
  51 O   -1.3039   0.3775   3.2569   O
  52 O   0.9939   -0.1818   3.6201   O
  53 O   -0.4421   1.3277   5.1859   O
  54 N   3.0711   8.8373   2.9688   N
  55 O   2.1480   9.3375   4.0401   O
  56 O   4.1087   9.9088   2.8102   O
  57 O   2.0727   8.5169   1.8961   O
  58 N   3.7307   3.9187   -1.5032   N
  59 O   2.2977   3.8765   -1.9443   O
  60 O   4.2668   5.2351   -1.9828   O
  61 O   4.2464   2.6305   -2.0729   O
  62 N   8.2233   3.5658   4.0102   N
  63 O   7.4564   2.6946   4.9605   O
  64 O   9.2427   2.6717   3.3688   O
  65 O   8.6487   4.6805   4.9194   O

@<TRIPOS>BOND
   1   1   3   1
   2   1   4   1
   3   1  13   1
   4   1  45   1
   5   1  57   1
   6   1  60   1
   7   2   3   1
   8   2   6   1
   9   2  10   1
  10   2  24   1
  11   2  55   1
  12   3   4   1
  13   3  16   1
  14   3  24   1
  15   3  57   1
  16   4   7   1
  17   4  16   1
  18   4  31   1
  19   4  59   1
  20   5  32   1
  21   5  33   1
  22   5  22   1
  23   5  23   1
  24   5  28   1
  25   5  25   1
  26   6  10   1
  27   6  24   1
  28   6  32   1
  29   6  35   1
  30   6  36   1
  31   6  48   1
  32   6  25   1
  33   7  30   1
  34   7  31   1
  35   7  34   1
  36   7  39   1
  37   7  40   1
  38   7  28   1
  39   7  61   1
  40   8   9   1
  41   8  11   1
  42   8  12   1
  43   8  43   1
  44   8  63   1
  45   9  12   1
  46   9  33   1
  47   9  43   1
  48   9  18   1
  49  10  13   1
  50  10  14   1
  51  10  36   1
  52  10  56   1
  53  11  12   1
  54  11  14   1
  55  11  40   1
  56  11  42   1
  57  11  43   1
  58  11  64   1
  59  12  33   1
  60  12  34   1
  61  12  40   1
  62  12  26   1
  63  13  14   1
  64  13  42   1
  65  13  45   1
  66  13  56   1
  67  14  36   1
  68  14  42   1
  69  14  43   1
  70  15  17   1
  71  15  30   1
  72  15  31   1
  73  15  28   1
  74  16  24   1
  75  16  31   1
  76  16  51   1
  77  17  22   1
  78  18  23   1
  79  19  26   1
  80  19  28   1
  81  20  38   1
  82  20  43   1
  83  21  44   1
  84  21  45   1
  85  22  24   1
  86  22  47   1
  87  22  53   1
  88  22  25   1
  89  23  32   1
  90  24  49   1
  91  24  53   1
  92  25  46   1
  93  25  32   1
  94  25  47   1
  95  26  33   1
  96  26  34   1
  97  27  50   1
  98  28  30   1
  99  29  54   1
 100  30  31   1
 101  31  52   1
 102  32  35   1
 103  32  43   1
 104  34  40   1
 105  35  36   1
 106  35  38   1
 107  36  38   1
 108  37  58   1
 109  39  40   1
 110  39  44   1
 111  39  61   1
 112  40  42   1
 113  40  44   1
 114  41  62   1
 115  42  45   1
 116  43  65   1
 117  44  60   1
 118  46  47   1
 119  46  48   1
 120  46  49   1
 121  50  51   1
 122  50  52   1
 123  50  53   1
 124  54  55   1
 125  54  56   1
 126  54  57   1
 127  58  59   1
 128  58  60   1
 129  58  61   1
 130  62  63   1
 131  62  64   1
 132  62  65   1
